7TBC
  PyMOL3.1          3D                             0

 37 41  0  0  0  0  0  0  0  0999 V2000
  -45.0522   31.9195    2.9743 C   0  0  0  0  0  0  0  0  0  0  0  0
  -47.4926   29.6701    8.2353 N   0  0  0  0  0  0  0  0  0  0  0  0
  -48.9240   33.4114    8.5026 O   0  0  0  0  0  0  0  0  0  0  0  0
  -44.3506   30.8837    2.3989 C   0  0  0  0  0  0  0  0  0  0  0  0
  -47.5178   31.7906    9.2769 N   0  0  0  0  0  0  0  0  0  0  0  0
  -44.1527   35.6185    5.5497 O   0  0  0  0  0  0  0  0  0  0  0  0
  -45.4064   36.2054    8.0873 C   0  0  0  0  0  0  0  0  0  0  0  0
  -43.4041   33.6820    6.4133 N   0  0  0  0  0  0  0  0  0  0  0  0
  -47.3101   35.4828   11.0701 O   0  0  0  0  0  0  0  0  0  0  0  0
  -44.4409   32.7406    3.9082 C   0  0  0  0  0  0  0  0  0  0  0  0
  -46.3873   30.0396   10.2738 N   0  0  0  0  0  0  0  0  0  0  0  0
  -41.0967   31.2248    3.9415 O   0  0  0  0  0  0  0  0  0  0  0  0
  -43.0282   30.6600    2.7413 C   0  0  0  0  0  0  0  0  0  0  0  0
  -46.1848   36.3672    9.2177 C   0  0  0  0  0  0  0  0  0  0  0  0
  -45.5279   33.8200    8.3256 C   0  0  0  0  0  0  0  0  0  0  0  0
  -45.0605   34.9379    7.6351 C   0  0  0  0  0  0  0  0  0  0  0  0
  -43.1173   32.5343    4.2759 C   0  0  0  0  0  0  0  0  0  0  0  0
  -46.3127   33.9596    9.4658 C   0  0  0  0  0  0  0  0  0  0  0  0
  -42.4183   31.4893    3.6731 C   0  0  0  0  0  0  0  0  0  0  0  0
  -46.6197   35.2455    9.9084 C   0  0  0  0  0  0  0  0  0  0  0  0
  -48.5548   32.2477    8.4698 C   0  0  0  0  0  0  0  0  0  0  0  0
  -47.1237   30.4553    9.2745 C   0  0  0  0  0  0  0  0  0  0  0  0
  -44.1724   34.7785    6.4454 C   0  0  0  0  0  0  0  0  0  0  0  0
  -49.2154   31.2423    7.5692 C   0  0  0  0  0  0  0  0  0  0  0  0
  -47.6519   33.0927   11.4290 C   0  0  0  0  0  0  0  0  0  0  0  0
  -41.2062   32.7353    5.8355 C   0  0  0  0  0  0  0  0  0  0  0  0
  -48.2717   34.4683   11.3907 C   0  0  0  0  0  0  0  0  0  0  0  0
  -46.8374   32.7286   10.1851 C   0  0  0  0  0  0  0  0  0  0  0  0
  -42.4674   33.4240    5.3263 C   0  0  0  0  0  0  0  0  0  0  0  0
  -48.2460   30.1659    7.0727 C   0  0  0  0  0  0  0  0  0  0  0  0
  -40.3430   32.2246    4.6960 C   0  0  0  0  0  0  0  0  0  0  0  0
  -39.9663   33.3251    3.7207 C   0  0  0  0  0  0  0  0  0  0  0  0
  -39.1091   31.5048    5.1976 C   0  0  0  0  0  0  0  0  0  0  0  0
  -49.8875   29.3781    5.2545 C   0  0  0  0  0  0  0  0  0  0  0  0
  -46.0428   29.9340    5.7796 C   0  0  0  0  0  0  0  0  0  0  0  0
  -49.0381   29.0057    6.4567 C   0  0  0  0  0  0  0  0  0  0  0  0
  -47.2608   30.7941    6.0806 C   0  0  0  0  0  0  0  0  0  0  0  0
  1  4  2  0  0  0  0
  1 10  1  0  0  0  0
  4 13  1  0  0  0  0
  7 14  2  0  0  0  0
  7 16  1  0  0  0  0
 15 16  2  0  0  0  0
 10 17  2  0  0  0  0
 15 18  1  0  0  0  0
 12 19  1  0  0  0  0
 13 19  2  0  0  0  0
 17 19  1  0  0  0  0
  9 20  1  0  0  0  0
 14 20  1  0  0  0  0
 18 20  2  0  0  0  0
  3 21  2  0  0  0  0
  5 21  1  0  0  0  0
  2 22  1  0  0  0  0
  5 22  1  0  0  0  0
 11 22  2  0  0  0  0
  6 23  2  0  0  0  0
  8 23  1  0  0  0  0
 16 23  1  0  0  0  0
 21 24  1  0  0  0  0
  9 27  1  0  0  0  0
 25 27  1  0  0  0  0
  5 28  1  0  0  0  0
 18 28  1  0  0  0  0
 25 28  1  0  0  0  0
  8 29  1  0  0  0  0
 17 29  1  0  0  0  0
 26 29  1  0  0  0  0
  2 30  1  0  0  0  0
 24 30  1  0  0  0  0
 12 31  1  0  0  0  0
 26 31  1  0  0  0  0
 31 32  1  0  0  0  0
 31 33  1  0  0  0  0
 30 36  1  0  0  0  0
 34 36  1  0  0  0  0
 30 37  1  0  0  0  0
 35 37  1  0  0  0  0
M  END
$$$$
