6X3X
  PyMOL3.1          3D                             0

 20 22  0  0  0  0  0  0  0  0999 V2000
   92.4710  126.1350  109.2850 Cl  0  0  0  0  0  0  0  0  0  0  0  0
   86.7100  123.6180  107.7490 C   0  0  0  0  0  0  0  0  0  0  0  0
   89.1180  127.7360  101.7990 O   0  0  0  0  0  0  0  0  0  0  0  0
   86.7600  122.3100  107.1190 C   0  0  0  0  0  0  0  0  0  0  0  0
   89.6550  128.2780  104.0530 N   0  0  0  0  0  0  0  0  0  0  0  0
   87.4960  122.1150  105.8850 C   0  0  0  0  0  0  0  0  0  0  0  0
   88.1880  123.2330  105.2790 C   0  0  0  0  0  0  0  0  0  0  0  0
   88.9830  125.5450  105.0170 C   0  0  0  0  0  0  0  0  0  0  0  0
   90.3620  127.7730  105.3300 C   0  0  0  0  0  0  0  0  0  0  0  0
   91.3210  128.6050  106.0670 C   0  0  0  0  0  0  0  0  0  0  0  0
   91.9750  128.1200  107.2690 C   0  0  0  0  0  0  0  0  0  0  0  0
   91.6560  126.7900  107.7480 C   0  0  0  0  0  0  0  0  0  0  0  0
   87.4000  124.7410  107.1470 C   0  0  0  0  0  0  0  0  0  0  0  0
   88.1300  124.5370  105.9150 C   0  0  0  0  0  0  0  0  0  0  0  0
   90.0500  126.4400  105.8350 C   0  0  0  0  0  0  0  0  0  0  0  0
   90.7010  125.9600  107.0480 C   0  0  0  0  0  0  0  0  0  0  0  0
   89.4680  124.9800  103.7000 N   0  0  0  0  0  0  0  0  0  0  0  0
   90.3240  125.9030  102.8740 C   0  0  0  0  0  0  0  0  0  0  0  0
   89.6660  127.3540  102.8450 C   0  0  0  0  0  0  0  0  0  0  0  0
   89.0270  129.6610  103.9990 C   0  0  0  0  0  0  0  0  0  0  0  0
  2  4  2  0  0  0  0
  4  6  1  0  0  0  0
  6  7  2  0  0  0  0
  5  9  1  0  0  0  0
  9 10  2  0  0  0  0
 10 11  1  0  0  0  0
  1 12  1  0  0  0  0
 11 12  2  0  0  0  0
  2 13  1  0  0  0  0
  7 14  1  0  0  0  0
  8 14  1  0  0  0  0
 13 14  2  0  0  0  0
  8 15  1  0  0  0  0
  9 15  1  0  0  0  0
 12 16  1  0  0  0  0
 15 16  2  0  0  0  0
  8 17  2  0  0  0  0
 17 18  1  0  0  0  0
  3 19  2  0  0  0  0
  5 19  1  0  0  0  0
 18 19  1  0  0  0  0
  5 20  1  0  0  0  0
M  END
$$$$
