6X3X
  PyMOL3.1          3D                             0

 20 22  0  0  0  0  0  0  0  0999 V2000
  128.7440  135.9330  137.7010 Cl  0  0  0  0  0  0  0  0  0  0  0  0
  128.3890  141.4160  131.9970 C   0  0  0  0  0  0  0  0  0  0  0  0
  123.5420  142.3550  137.0760 O   0  0  0  0  0  0  0  0  0  0  0  0
  128.0850  140.1830  131.2970 C   0  0  0  0  0  0  0  0  0  0  0  0
  124.0330  140.0430  136.9480 N   0  0  0  0  0  0  0  0  0  0  0  0
  127.2780  139.1510  131.9340 C   0  0  0  0  0  0  0  0  0  0  0  0
  126.7700  139.3490  133.2810 C   0  0  0  0  0  0  0  0  0  0  0  0
  126.4200  140.5860  135.4340 C   0  0  0  0  0  0  0  0  0  0  0  0
  125.1850  139.0400  137.1250 C   0  0  0  0  0  0  0  0  0  0  0  0
  125.0610  137.8880  138.0130 C   0  0  0  0  0  0  0  0  0  0  0  0
  126.1480  136.9520  138.1810 C   0  0  0  0  0  0  0  0  0  0  0  0
  127.3740  137.1720  137.4450 C   0  0  0  0  0  0  0  0  0  0  0  0
  127.8860  141.6160  133.3440 C   0  0  0  0  0  0  0  0  0  0  0  0
  127.0860  140.5850  133.9770 C   0  0  0  0  0  0  0  0  0  0  0  0
  126.4150  139.2570  136.3700 C   0  0  0  0  0  0  0  0  0  0  0  0
  127.5200  138.3080  136.5450 C   0  0  0  0  0  0  0  0  0  0  0  0
  126.5940  141.8820  136.1990 N   0  0  0  0  0  0  0  0  0  0  0  0
  125.8670  141.9450  137.5200 C   0  0  0  0  0  0  0  0  0  0  0  0
  124.3970  141.4860  137.1910 C   0  0  0  0  0  0  0  0  0  0  0  0
  122.6100  139.6250  136.6340 C   0  0  0  0  0  0  0  0  0  0  0  0
  2  4  2  0  0  0  0
  4  6  1  0  0  0  0
  6  7  2  0  0  0  0
  5  9  1  0  0  0  0
  9 10  2  0  0  0  0
 10 11  1  0  0  0  0
  1 12  1  0  0  0  0
 11 12  2  0  0  0  0
  2 13  1  0  0  0  0
  7 14  1  0  0  0  0
  8 14  1  0  0  0  0
 13 14  2  0  0  0  0
  8 15  1  0  0  0  0
  9 15  1  0  0  0  0
 12 16  1  0  0  0  0
 15 16  2  0  0  0  0
  8 17  2  0  0  0  0
 17 18  1  0  0  0  0
  3 19  2  0  0  0  0
  5 19  1  0  0  0  0
 18 19  1  0  0  0  0
  5 20  1  0  0  0  0
M  END
$$$$
