7XDG
  PyMOL3.1          3D                             0

 21 22  0  0  0  0  0  0  0  0999 V2000
  169.3180  156.5940  136.7820 O   0  0  0  0  0  0  0  0  0  0  0  0
  162.9430  157.7650  129.1740 O   0  0  0  0  0  0  0  0  0  0  0  0
  171.0370  159.4660  134.6070 O   0  0  0  0  0  0  0  0  0  0  0  0
  163.5080  156.1110  127.2360 O   0  0  0  0  0  0  0  0  0  0  0  0
  169.9990  159.1740  136.5220 O   0  0  0  0  0  0  0  0  0  0  0  0
  165.5580  156.3720  126.5330 O   0  0  0  0  0  0  0  0  0  0  0  0
  168.2040  156.6540  131.1600 C   0  0  0  0  0  0  0  0  0  0  0  0
  168.5080  156.6530  132.6620 C   0  0  0  0  0  0  0  0  0  0  0  0
  166.7940  156.9550  130.6310 C   0  0  0  0  0  0  0  0  0  0  0  0
  169.1850  157.7020  133.3100 C   0  0  0  0  0  0  0  0  0  0  0  0
  166.3680  156.5690  129.3440 C   0  0  0  0  0  0  0  0  0  0  0  0
  168.1170  155.5850  133.4730 C   0  0  0  0  0  0  0  0  0  0  0  0
  165.8550  157.6270  131.4120 C   0  0  0  0  0  0  0  0  0  0  0  0
  169.4740  157.7160  134.6770 C   0  0  0  0  0  0  0  0  0  0  0  0
  165.0950  156.8280  128.8320 C   0  0  0  0  0  0  0  0  0  0  0  0
  168.3840  155.5610  134.8420 C   0  0  0  0  0  0  0  0  0  0  0  0
  164.5690  157.9050  130.9400 C   0  0  0  0  0  0  0  0  0  0  0  0
  169.0600  156.6250  135.4410 C   0  0  0  0  0  0  0  0  0  0  0  0
  164.1920  157.5060  129.6560 C   0  0  0  0  0  0  0  0  0  0  0  0
  170.2130  158.8710  135.3580 C   0  0  0  0  0  0  0  0  0  0  0  0
  164.6640  156.3940  127.4160 C   0  0  0  0  0  0  0  0  0  0  0  0
  7  8  1  0  0  0  0
  7  9  1  0  0  0  0
  8 10  1  0  0  0  0
  9 11  2  0  0  0  0
  8 12  2  0  0  0  0
  9 13  1  0  0  0  0
 10 14  2  0  0  0  0
 11 15  1  0  0  0  0
 12 16  1  0  0  0  0
 13 17  2  0  0  0  0
  1 18  1  0  0  0  0
 14 18  1  0  0  0  0
 16 18  2  0  0  0  0
  2 19  1  0  0  0  0
 15 19  2  0  0  0  0
 17 19  1  0  0  0  0
  3 20  2  0  0  0  0
  5 20  1  0  0  0  0
 14 20  1  0  0  0  0
  4 21  1  0  0  0  0
  6 21  2  0  0  0  0
 15 21  1  0  0  0  0
M  END
$$$$
