7XDG
  PyMOL3.1          3D                             0

 21 22  0  0  0  0  0  0  0  0999 V2000
  145.5600  158.2880  136.7870 O   0  0  0  0  0  0  0  0  0  0  0  0
  151.9330  157.1170  129.1770 O   0  0  0  0  0  0  0  0  0  0  0  0
  143.8400  155.4160  134.6120 O   0  0  0  0  0  0  0  0  0  0  0  0
  151.3670  158.7710  127.2390 O   0  0  0  0  0  0  0  0  0  0  0  0
  144.8790  155.7080  136.5260 O   0  0  0  0  0  0  0  0  0  0  0  0
  149.3170  158.5090  126.5370 O   0  0  0  0  0  0  0  0  0  0  0  0
  146.6720  158.2270  131.1640 C   0  0  0  0  0  0  0  0  0  0  0  0
  146.3690  158.2290  132.6660 C   0  0  0  0  0  0  0  0  0  0  0  0
  148.0820  157.9270  130.6340 C   0  0  0  0  0  0  0  0  0  0  0  0
  145.6920  157.1800  133.3140 C   0  0  0  0  0  0  0  0  0  0  0  0
  148.5080  158.3120  129.3470 C   0  0  0  0  0  0  0  0  0  0  0  0
  146.7600  159.2960  133.4770 C   0  0  0  0  0  0  0  0  0  0  0  0
  149.0210  157.2550  131.4150 C   0  0  0  0  0  0  0  0  0  0  0  0
  145.4040  157.1660  134.6810 C   0  0  0  0  0  0  0  0  0  0  0  0
  149.7810  158.0540  128.8350 C   0  0  0  0  0  0  0  0  0  0  0  0
  146.4940  159.3210  134.8460 C   0  0  0  0  0  0  0  0  0  0  0  0
  150.3070  156.9770  130.9430 C   0  0  0  0  0  0  0  0  0  0  0  0
  145.8170  158.2570  135.4450 C   0  0  0  0  0  0  0  0  0  0  0  0
  150.6840  157.3760  129.6590 C   0  0  0  0  0  0  0  0  0  0  0  0
  144.6650  156.0100  135.3620 C   0  0  0  0  0  0  0  0  0  0  0  0
  150.2120  158.4880  127.4190 C   0  0  0  0  0  0  0  0  0  0  0  0
  7  8  1  0  0  0  0
  7  9  1  0  0  0  0
  8 10  1  0  0  0  0
  9 11  2  0  0  0  0
  8 12  2  0  0  0  0
  9 13  1  0  0  0  0
 10 14  2  0  0  0  0
 11 15  1  0  0  0  0
 12 16  1  0  0  0  0
 13 17  2  0  0  0  0
  1 18  1  0  0  0  0
 14 18  1  0  0  0  0
 16 18  2  0  0  0  0
  2 19  1  0  0  0  0
 15 19  2  0  0  0  0
 17 19  1  0  0  0  0
  3 20  2  0  0  0  0
  5 20  1  0  0  0  0
 14 20  1  0  0  0  0
  4 21  1  0  0  0  0
  6 21  2  0  0  0  0
 15 21  1  0  0  0  0
M  END
$$$$
