6WEV
  PyMOL3.1          3D                             0

 52 56  0  0  0  0  0  0  0  0999 V2000
   20.8740  -45.1690  -30.6670 C   0  0  0  0  0  0  0  0  0  0  0  0
   20.7990  -44.0180  -31.4700 O   0  0  0  0  0  0  0  0  0  0  0  0
   19.9160  -43.0080  -30.9910 C   0  0  0  0  0  0  0  0  0  0  0  0
   18.5740  -43.0020  -31.3900 C   0  0  0  0  0  0  0  0  0  0  0  0
   17.6800  -41.9720  -30.9160 C   0  0  0  0  0  0  0  0  0  0  0  0
   16.3610  -41.9530  -31.2890 N   0  0  0  0  0  0  0  0  0  0  0  0
   15.5330  -41.0060  -30.8470 C   0  0  0  0  0  0  0  0  0  0  0  0
   15.9570  -40.0320  -30.0160 N   0  0  0  0  0  0  0  0  0  0  0  0
   17.2140  -39.9910  -29.6220 C   0  0  0  0  0  0  0  0  0  0  0  0
   18.1430  -40.9980  -30.0800 C   0  0  0  0  0  0  0  0  0  0  0  0
   19.5250  -41.0000  -29.6700 C   0  0  0  0  0  0  0  0  0  0  0  0
   20.3960  -42.0050  -30.1320 C   0  0  0  0  0  0  0  0  0  0  0  0
   21.7620  -42.0160  -29.7360 O   0  0  0  0  0  0  0  0  0  0  0  0
   22.0860  -41.0580  -28.7440 C   0  0  0  0  0  0  0  0  0  0  0  0
   17.6580  -38.9300  -28.7300 N   0  0  0  0  0  0  0  0  0  0  0  0
   16.6680  -38.3200  -27.7390 C   0  0  0  0  0  0  0  0  0  0  0  0
   17.3700  -37.6550  -26.5590 C   0  0  0  0  0  0  0  0  0  0  0  0
   18.5540  -36.9070  -26.9710 C   0  0  0  0  0  0  0  0  0  0  0  0
   18.5340  -36.5660  -28.3860 C   0  0  0  0  0  0  0  0  0  0  0  0
   18.5350  -37.8060  -29.2800 C   0  0  0  0  0  0  0  0  0  0  0  0
   18.6490  -35.5860  -26.1500 C   0  0  0  0  0  0  0  0  0  0  0  0
   17.4670  -35.4350  -25.2740 N   0  0  0  0  0  0  0  0  0  0  0  0
   17.7140  -34.8990  -23.6800 S   0  0  0  0  0  0  0  0  0  0  0  0
   17.4880  -35.9770  -22.7220 O   0  0  0  0  0  0  0  0  0  0  0  0
   16.6900  -33.9260  -23.2950 O   0  0  0  0  0  0  0  0  0  0  0  0
   19.2630  -34.2410  -23.5110 N   0  0  0  0  0  0  0  0  0  0  0  0
   33.3230   -3.8750   14.0180 C   0  0  0  0  0  0  0  0  0  0  0  0
   32.6550   -3.8930   12.7740 O   0  0  0  0  0  0  0  0  0  0  0  0
   33.4950   -3.7630   11.6380 C   0  0  0  0  0  0  0  0  0  0  0  0
   34.5990   -2.9060   11.6570 C   0  0  0  0  0  0  0  0  0  0  0  0
   35.4450   -2.7880   10.4960 C   0  0  0  0  0  0  0  0  0  0  0  0
   36.5290   -1.9510   10.5070 N   0  0  0  0  0  0  0  0  0  0  0  0
   37.3160   -1.8300    9.4420 C   0  0  0  0  0  0  0  0  0  0  0  0
   37.0810   -2.5220    8.3120 N   0  0  0  0  0  0  0  0  0  0  0  0
   36.0530   -3.3550    8.2240 C   0  0  0  0  0  0  0  0  0  0  0  0
   35.1690   -3.5080    9.3660 C   0  0  0  0  0  0  0  0  0  0  0  0
   34.0280   -4.3910    9.3520 C   0  0  0  0  0  0  0  0  0  0  0  0
   33.2060   -4.5010   10.4920 C   0  0  0  0  0  0  0  0  0  0  0  0
   32.0790   -5.3670   10.5130 O   0  0  0  0  0  0  0  0  0  0  0  0
   31.4450   -5.5530    9.2640 C   0  0  0  0  0  0  0  0  0  0  0  0
   35.8120   -4.0800    6.9690 N   0  0  0  0  0  0  0  0  0  0  0  0
   36.1840   -5.5610    6.8290 C   0  0  0  0  0  0  0  0  0  0  0  0
   36.1510   -6.0640    5.3830 C   0  0  0  0  0  0  0  0  0  0  0  0
   34.8780   -5.7800    4.7350 C   0  0  0  0  0  0  0  0  0  0  0  0
   34.5860   -4.3550    4.7430 C   0  0  0  0  0  0  0  0  0  0  0  0
   34.5340   -3.7990    6.1660 C   0  0  0  0  0  0  0  0  0  0  0  0
   34.9090   -6.2810    3.2580 C   0  0  0  0  0  0  0  0  0  0  0  0
   35.0900   -7.7500    3.2160 N   0  0  0  0  0  0  0  0  0  0  0  0
   36.4710   -8.4000    2.4540 S   0  0  0  0  0  0  0  0  0  0  0  0
   36.9380   -9.6130    3.1250 O   0  0  0  0  0  0  0  0  0  0  0  0
   37.6250   -7.5160    2.6140 O   0  0  0  0  0  0  0  0  0  0  0  0
   36.1470   -8.6770    0.8190 N   0  0  0  0  0  0  0  0  0  0  0  0
  1  2  1  0  0  0  0
  2  3  1  0  0  0  0
  3  4  1  0  0  0  0
  4  5  1  0  0  0  0
  5  6  1  0  0  0  0
  6  7  2  0  0  0  0
  7  8  1  0  0  0  0
  8  9  2  0  0  0  0
  5 10  2  0  0  0  0
  9 10  1  0  0  0  0
 10 11  1  0  0  0  0
  3 12  2  0  0  0  0
 11 12  1  0  0  0  0
 12 13  1  0  0  0  0
 13 14  1  0  0  0  0
  9 15  1  0  0  0  0
 15 16  1  0  0  0  0
 16 17  1  0  0  0  0
 17 18  1  0  0  0  0
 18 19  1  0  0  0  0
 15 20  1  0  0  0  0
 19 20  1  0  0  0  0
 18 21  1  0  0  0  0
 21 22  1  0  0  0  0
 22 23  1  0  0  0  0
 23 24  2  0  0  0  0
 23 25  2  0  0  0  0
 23 26  1  0  0  0  0
 27 28  1  0  0  0  0
 28 29  1  0  0  0  0
 29 30  1  0  0  0  0
 30 31  1  0  0  0  0
 31 32  1  0  0  0  0
 32 33  2  0  0  0  0
 33 34  1  0  0  0  0
 34 35  2  0  0  0  0
 31 36  2  0  0  0  0
 35 36  1  0  0  0  0
 36 37  1  0  0  0  0
 29 38  2  0  0  0  0
 37 38  1  0  0  0  0
 38 39  1  0  0  0  0
 39 40  1  0  0  0  0
 35 41  1  0  0  0  0
 41 42  1  0  0  0  0
 42 43  1  0  0  0  0
 43 44  1  0  0  0  0
 44 45  1  0  0  0  0
 41 46  1  0  0  0  0
 45 46  1  0  0  0  0
 44 47  1  0  0  0  0
 47 48  1  0  0  0  0
 48 49  1  0  0  0  0
 49 50  2  0  0  0  0
 49 51  2  0  0  0  0
 49 52  1  0  0  0  0
M  END
$$$$
