8XJL
  PyMOL3.1          3D                             0

 25 25  0  0  0  0  0  0  0  0999 V2000
   91.7060  129.5900  125.1300 C   0  0  0  0  0  0  0  0  0  0  0  0
   92.0740  129.3810  126.3190 O   0  0  0  0  0  0  0  0  0  0  0  0
   92.6580  129.2890  123.9600 C   0  0  0  0  0  0  0  0  0  0  0  0
   90.5480  130.0400  124.9000 O   0  0  0  0  0  0  0  0  0  0  0  0
   93.9760  128.6200  124.4120 C   0  0  0  0  0  0  0  0  0  0  0  0
   92.1890  124.7700  122.8980 O   0  0  0  0  0  0  0  0  0  0  0  0
   93.8960  127.0820  124.2310 C   0  0  0  0  0  0  0  0  0  0  0  0
   92.3350  121.8600  120.0220 O   0  0  0  0  0  0  0  0  0  0  0  0
   95.2510  126.4050  124.5480 C   0  0  0  0  0  0  0  0  0  0  0  0
   96.6230  122.0390  117.1180 O   0  0  0  0  0  0  0  0  0  0  0  0
   95.6600  125.4340  123.7040 C   0  0  0  0  0  0  0  0  0  0  0  0
   94.6640  125.1630  122.5330 C   0  0  0  0  0  0  0  0  0  0  0  0
   94.1990  123.6910  122.5810 C   0  0  0  0  0  0  0  0  0  0  0  0
   92.9990  123.5880  123.1630 C   0  0  0  0  0  0  0  0  0  0  0  0
   92.3240  122.3220  122.4870 C   0  0  0  0  0  0  0  0  0  0  0  0
   93.2110  122.0190  121.1700 C   0  0  0  0  0  0  0  0  0  0  0  0
   93.9860  123.0720  121.0190 C   0  0  0  0  0  0  0  0  0  0  0  0
   95.3620  122.6510  120.4290 C   0  0  0  0  0  0  0  0  0  0  0  0
   95.3170  122.4200  119.0860 C   0  0  0  0  0  0  0  0  0  0  0  0
   96.6750  122.0050  118.5080 C   0  0  0  0  0  0  0  0  0  0  0  0
   97.7670  122.9760  119.0060 C   0  0  0  0  0  0  0  0  0  0  0  0
   98.0670  124.1190  117.9980 C   0  0  0  0  0  0  0  0  0  0  0  0
   98.9640  125.2150  118.6340 C   0  0  0  0  0  0  0  0  0  0  0  0
  100.1910  125.5570  117.7530 C   0  0  0  0  0  0  0  0  0  0  0  0
  100.9920  126.7540  118.3090 C   0  0  0  0  0  0  0  0  0  0  0  0
  1  2  2  0  0  0  0
  1  3  1  0  0  0  0
  1  4  1  0  0  0  0
  3  5  1  0  0  0  0
  5  7  1  0  0  0  0
  7  9  1  0  0  0  0
  9 11  2  0  0  0  0
 11 12  1  0  0  0  0
 12 13  1  0  0  0  0
  6 14  1  0  0  0  0
 13 14  1  0  0  0  0
 14 15  1  0  0  0  0
  8 16  1  0  0  0  0
 15 16  1  0  0  0  0
 13 17  1  0  0  0  0
 16 17  1  0  0  0  0
 17 18  1  0  0  0  0
 18 19  2  0  0  0  0
 10 20  1  0  0  0  0
 19 20  1  0  0  0  0
 20 21  1  0  0  0  0
 21 22  1  0  0  0  0
 22 23  1  0  0  0  0
 23 24  1  0  0  0  0
 24 25  1  0  0  0  0
M  END
$$$$
