7QN9
  PyMOL3.1          3D                             0

  8  8  0  0  0  0  0  0  0  0999 V2000
  147.4220  139.8730  102.8390 N   0  0  0  0  0  0  0  0  0  0  0  0
  148.5620  139.4250  103.6410 C   0  0  0  0  0  0  0  0  0  0  0  0
  149.0330  138.0640  103.1020 C   0  0  0  0  0  0  0  0  0  0  0  0
  150.2080  137.5270  103.8550 C   0  0  0  0  0  0  0  0  0  0  0  0
  150.4740  137.5870  105.1870 C   0  0  0  0  0  0  0  0  0  0  0  0
  151.2350  136.8560  103.2170 N   0  0  0  0  0  0  0  0  0  0  0  0
  152.0880  136.5330  104.1760 C   0  0  0  0  0  0  0  0  0  0  0  0
  151.6700  136.9520  105.3750 N   0  0  0  0  0  0  0  0  0  0  0  0
  1  2  1  0  0  0  0
  2  3  1  0  0  0  0
  3  4  1  0  0  0  0
  4  5  4  0  0  0  0
  4  6  4  0  0  0  0
  5  8  4  0  0  0  0
  6  7  4  0  0  0  0
  7  8  4  0  0  0  0
M  END
$$$$
