7QN9
  PyMOL3.1          3D                             0

  8  8  0  0  0  0  0  0  0  0999 V2000
  148.2450  110.5210  106.8390 N   0  0  0  0  0  0  0  0  0  0  0  0
  147.7750  109.2360  106.3160 C   0  0  0  0  0  0  0  0  0  0  0  0
  146.3300  109.0190  106.7920 C   0  0  0  0  0  0  0  0  0  0  0  0
  145.7620  107.7170  106.3250 C   0  0  0  0  0  0  0  0  0  0  0  0
  145.7860  106.5020  106.9350 C   0  0  0  0  0  0  0  0  0  0  0  0
  145.0920  107.6060  105.1210 N   0  0  0  0  0  0  0  0  0  0  0  0
  144.7310  106.3350  105.0390 C   0  0  0  0  0  0  0  0  0  0  0  0
  145.1280  105.6360  106.1070 N   0  0  0  0  0  0  0  0  0  0  0  0
  1  2  1  0  0  0  0
  2  3  1  0  0  0  0
  3  4  1  0  0  0  0
  4  5  2  0  0  0  0
  4  6  1  0  0  0  0
  6  7  2  0  0  0  0
  5  8  1  0  0  0  0
  7  8  1  0  0  0  0
M  END
$$$$
