7F83
  PyMOL3.1          3D                             0

 37 43  0  0  0  0  0  0  0  0999 V2000
  -12.6790    9.1760   23.4950 C   0  0  0  0  0  0  0  0  0  0  0  0
  -12.6170    9.3710   21.9780 C   0  0  0  0  0  0  0  0  0  0  0  0
  -13.6040    9.9710   21.3410 N   0  0  0  0  0  0  0  0  0  0  0  0
  -13.5690   10.1440   20.0300 C   0  0  0  0  0  0  0  0  0  0  0  0
  -12.5480    9.7260   19.2980 N   0  0  0  0  0  0  0  0  0  0  0  0
  -11.5070    9.1490   19.8790 C   0  0  0  0  0  0  0  0  0  0  0  0
  -11.5190    8.9180   21.2510 C   0  0  0  0  0  0  0  0  0  0  0  0
  -10.4420    8.6740   19.1050 C   0  0  0  0  0  0  0  0  0  0  0  0
  -10.7320    8.3350   17.7760 C   0  0  0  0  0  0  0  0  0  0  0  0
   -9.7450    7.8220   16.9550 C   0  0  0  0  0  0  0  0  0  0  0  0
   -8.4470    7.6270   17.4520 C   0  0  0  0  0  0  0  0  0  0  0  0
   -8.1460    7.9320   18.7810 C   0  0  0  0  0  0  0  0  0  0  0  0
   -9.1470    8.4650   19.6220 C   0  0  0  0  0  0  0  0  0  0  0  0
   -6.6620    7.5990   19.0380 C   0  0  0  0  0  0  0  0  0  0  0  0
   -6.0690    7.2350   17.6850 C   0  0  0  0  0  0  0  0  0  0  0  0
   -7.2340    7.0190   16.7250 C   0  0  0  0  0  0  0  0  0  0  0  0
   -7.1360    5.9150   16.6010 N   0  0  0  0  0  0  0  0  0  0  0  0
   -6.0770    5.4280   15.7770 C   0  0  0  0  0  0  0  0  0  0  0  0
   -6.9870    4.5030   15.1750 C   0  0  0  0  0  0  0  0  0  0  0  0
   -8.0310    5.3760   15.6110 C   0  0  0  0  0  0  0  0  0  0  0  0
   -7.5060    3.1850   15.6030 C   0  0  0  0  0  0  0  0  0  0  0  0
   -6.6990    2.0020   15.0550 C   0  0  0  0  0  0  0  0  0  0  0  0
   -6.4380    2.0690   13.5730 N   0  0  0  0  0  0  0  0  0  0  0  0
   -6.0780    3.4610   13.1380 C   0  0  0  0  0  0  0  0  0  0  0  0
   -7.0130    4.5350   13.6960 C   0  0  0  0  0  0  0  0  0  0  0  0
   -6.5000    0.9180   12.6460 C   0  0  0  0  0  0  0  0  0  0  0  0
   -6.7840   -0.1710   13.0280 O   0  0  0  0  0  0  0  0  0  0  0  0
   -6.2030    1.1180   11.1370 C   0  0  0  0  0  0  0  0  0  0  0  0
   -4.7020    0.9150   10.8790 C   0  0  0  0  0  0  0  0  0  0  0  0
   -4.0440   -0.2220   11.0450 N   0  0  0  0  0  0  0  0  0  0  0  0
   -2.7560   -0.0080   10.7320 C   0  0  0  0  0  0  0  0  0  0  0  0
   -2.5600    1.2410   10.3710 N   0  0  0  0  0  0  0  0  0  0  0  0
   -3.7710    1.8600   10.4560 C   0  0  0  0  0  0  0  0  0  0  0  0
   -1.2920    1.6130   10.0290 C   0  0  0  0  0  0  0  0  0  0  0  0
   -0.3660    0.5920   10.1180 C   0  0  0  0  0  0  0  0  0  0  0  0
   -1.2170   -0.8090   10.6380 S   0  0  0  0  0  0  0  0  0  0  0  0
    1.1170    0.5620    9.8310 C   0  0  0  0  0  0  0  0  0  0  0  0
  1  2  1  0  0  0  0
  2  3  1  0  0  0  0
  3  4  2  0  0  0  0
  4  5  1  0  0  0  0
  5  6  2  0  0  0  0
  2  7  2  0  0  0  0
  6  7  1  0  0  0  0
  6  8  1  0  0  0  0
  8  9  1  0  0  0  0
  9 10  2  0  0  0  0
 10 11  1  0  0  0  0
 11 12  2  0  0  0  0
  8 13  2  0  0  0  0
 12 13  1  0  0  0  0
 12 14  1  0  0  0  0
 14 15  1  0  0  0  0
 11 16  1  0  0  0  0
 15 16  1  0  0  0  0
 16 17  1  0  0  0  0
 17 18  1  0  0  0  0
 18 19  1  0  0  0  0
 17 20  1  0  0  0  0
 19 20  1  0  0  0  0
 19 21  1  0  0  0  0
 21 22  1  0  0  0  0
 22 23  1  0  0  0  0
 23 24  1  0  0  0  0
 19 25  1  0  0  0  0
 24 25  1  0  0  0  0
 23 26  1  0  0  0  0
 26 27  2  0  0  0  0
 26 28  1  0  0  0  0
 28 29  1  0  0  0  0
 29 30  1  0  0  0  0
 30 31  2  0  0  0  0
 31 32  1  0  0  0  0
 29 33  2  0  0  0  0
 32 33  1  0  0  0  0
 32 34  1  0  0  0  0
 34 35  2  0  0  0  0
 31 36  1  0  0  0  0
 35 36  1  0  0  0  0
 35 37  1  0  0  0  0
M  END
$$$$
