7F83
  PyMOL3.1          3D                             0

 74 86  0  0  0  0  0  0  0  0999 V2000
  -12.6790    9.1760   23.4950 C   0  0  0  0  0  0  0  0  0  0  0  0
  -12.6170    9.3710   21.9780 C   0  0  0  0  0  0  0  0  0  0  0  0
  -13.6040    9.9710   21.3410 N   0  0  0  0  0  0  0  0  0  0  0  0
  -13.5690   10.1440   20.0300 C   0  0  0  0  0  0  0  0  0  0  0  0
  -12.5480    9.7260   19.2980 N   0  0  0  0  0  0  0  0  0  0  0  0
  -11.5070    9.1490   19.8790 C   0  0  0  0  0  0  0  0  0  0  0  0
  -11.5190    8.9180   21.2510 C   0  0  0  0  0  0  0  0  0  0  0  0
  -10.4420    8.6740   19.1050 C   0  0  0  0  0  0  0  0  0  0  0  0
  -10.7320    8.3350   17.7760 C   0  0  0  0  0  0  0  0  0  0  0  0
   -9.7450    7.8220   16.9550 C   0  0  0  0  0  0  0  0  0  0  0  0
   -8.4470    7.6270   17.4520 C   0  0  0  0  0  0  0  0  0  0  0  0
   -8.1460    7.9320   18.7810 C   0  0  0  0  0  0  0  0  0  0  0  0
   -9.1470    8.4650   19.6220 C   0  0  0  0  0  0  0  0  0  0  0  0
   -6.6620    7.5990   19.0380 C   0  0  0  0  0  0  0  0  0  0  0  0
   -6.0690    7.2350   17.6850 C   0  0  0  0  0  0  0  0  0  0  0  0
   -7.2340    7.0190   16.7250 C   0  0  0  0  0  0  0  0  0  0  0  0
   -7.1360    5.9150   16.6010 N   0  0  0  0  0  0  0  0  0  0  0  0
   -6.0770    5.4280   15.7770 C   0  0  0  0  0  0  0  0  0  0  0  0
   -6.9870    4.5030   15.1750 C   0  0  0  0  0  0  0  0  0  0  0  0
   -8.0310    5.3760   15.6110 C   0  0  0  0  0  0  0  0  0  0  0  0
   -7.5060    3.1850   15.6030 C   0  0  0  0  0  0  0  0  0  0  0  0
   -6.6990    2.0020   15.0550 C   0  0  0  0  0  0  0  0  0  0  0  0
   -6.4380    2.0690   13.5730 N   0  0  0  0  0  0  0  0  0  0  0  0
   -6.0780    3.4610   13.1380 C   0  0  0  0  0  0  0  0  0  0  0  0
   -7.0130    4.5350   13.6960 C   0  0  0  0  0  0  0  0  0  0  0  0
   -6.5000    0.9180   12.6460 C   0  0  0  0  0  0  0  0  0  0  0  0
   -6.7840   -0.1710   13.0280 O   0  0  0  0  0  0  0  0  0  0  0  0
   -6.2030    1.1180   11.1370 C   0  0  0  0  0  0  0  0  0  0  0  0
   -4.7020    0.9150   10.8790 C   0  0  0  0  0  0  0  0  0  0  0  0
   -4.0440   -0.2220   11.0450 N   0  0  0  0  0  0  0  0  0  0  0  0
   -2.7560   -0.0080   10.7320 C   0  0  0  0  0  0  0  0  0  0  0  0
   -2.5600    1.2410   10.3710 N   0  0  0  0  0  0  0  0  0  0  0  0
   -3.7710    1.8600   10.4560 C   0  0  0  0  0  0  0  0  0  0  0  0
   -1.2920    1.6130   10.0290 C   0  0  0  0  0  0  0  0  0  0  0  0
   -0.3660    0.5920   10.1180 C   0  0  0  0  0  0  0  0  0  0  0  0
   -1.2170   -0.8090   10.6380 S   0  0  0  0  0  0  0  0  0  0  0  0
    1.1170    0.5620    9.8310 C   0  0  0  0  0  0  0  0  0  0  0  0
   14.4440   -1.0950   37.8730 C   0  0  0  0  0  0  0  0  0  0  0  0
   14.2280   -1.0060   39.3830 C   0  0  0  0  0  0  0  0  0  0  0  0
   15.1550   -0.4880   40.1630 N   0  0  0  0  0  0  0  0  0  0  0  0
   14.9890   -0.4040   41.4730 C   0  0  0  0  0  0  0  0  0  0  0  0
   13.8880   -0.8310   42.0660 N   0  0  0  0  0  0  0  0  0  0  0  0
   12.9110   -1.3290   41.3300 C   0  0  0  0  0  0  0  0  0  0  0  0
   13.0520   -1.4650   39.9550 C   0  0  0  0  0  0  0  0  0  0  0  0
   11.7590   -1.8120   41.9390 C   0  0  0  0  0  0  0  0  0  0  0  0
   11.9080   -2.3390   43.2230 C   0  0  0  0  0  0  0  0  0  0  0  0
   10.8090   -2.8780   43.8720 C   0  0  0  0  0  0  0  0  0  0  0  0
    9.5460   -2.8880   43.2400 C   0  0  0  0  0  0  0  0  0  0  0  0
    9.3960   -2.3880   41.9490 C   0  0  0  0  0  0  0  0  0  0  0  0
   10.5170   -1.8410   41.2890 C   0  0  0  0  0  0  0  0  0  0  0  0
    7.9160   -2.5510   41.5150 C   0  0  0  0  0  0  0  0  0  0  0  0
    7.1710   -3.0600   42.7360 C   0  0  0  0  0  0  0  0  0  0  0  0
    8.2230   -3.4710   43.7560 C   0  0  0  0  0  0  0  0  0  0  0  0
    8.0600   -4.5580   43.6960 N   0  0  0  0  0  0  0  0  0  0  0  0
    6.9010   -5.0900   44.3300 C   0  0  0  0  0  0  0  0  0  0  0  0
    7.7250   -6.0860   44.9390 C   0  0  0  0  0  0  0  0  0  0  0  0
    8.8420   -5.2460   44.6770 C   0  0  0  0  0  0  0  0  0  0  0  0
    8.2720   -7.3760   44.4550 C   0  0  0  0  0  0  0  0  0  0  0  0
    7.3940   -8.5620   44.8560 C   0  0  0  0  0  0  0  0  0  0  0  0
    7.0460   -8.5620   46.3170 N   0  0  0  0  0  0  0  0  0  0  0  0
    6.6200   -7.2150   46.8070 C   0  0  0  0  0  0  0  0  0  0  0  0
    7.6000   -6.1170   46.4120 C   0  0  0  0  0  0  0  0  0  0  0  0
    7.1070   -9.7210   47.2000 C   0  0  0  0  0  0  0  0  0  0  0  0
    7.4420  -10.7870   46.7990 O   0  0  0  0  0  0  0  0  0  0  0  0
    6.7110   -9.5070   48.6740 C   0  0  0  0  0  0  0  0  0  0  0  0
    5.1840   -9.5860   48.7300 C   0  0  0  0  0  0  0  0  0  0  0  0
    4.4660  -10.6610   48.4270 N   0  0  0  0  0  0  0  0  0  0  0  0
    3.1780  -10.3370   48.5760 C   0  0  0  0  0  0  0  0  0  0  0  0
    3.0560   -9.0920   48.9560 N   0  0  0  0  0  0  0  0  0  0  0  0
    4.3020   -8.5680   49.0610 C   0  0  0  0  0  0  0  0  0  0  0  0
    1.8050   -8.6170   49.1480 C   0  0  0  0  0  0  0  0  0  0  0  0
    0.7950   -9.5220   48.9200 C   0  0  0  0  0  0  0  0  0  0  0  0
    1.5740  -10.9780   48.4440 S   0  0  0  0  0  0  0  0  0  0  0  0
   -0.7020   -9.3450   49.0270 C   0  0  0  0  0  0  0  0  0  0  0  0
  1  2  1  0  0  0  0
  2  3  1  0  0  0  0
  3  4  2  0  0  0  0
  4  5  1  0  0  0  0
  5  6  2  0  0  0  0
  2  7  2  0  0  0  0
  6  7  1  0  0  0  0
  6  8  1  0  0  0  0
  8  9  1  0  0  0  0
  9 10  2  0  0  0  0
 10 11  1  0  0  0  0
 11 12  2  0  0  0  0
  8 13  2  0  0  0  0
 12 13  1  0  0  0  0
 12 14  1  0  0  0  0
 14 15  1  0  0  0  0
 11 16  1  0  0  0  0
 15 16  1  0  0  0  0
 16 17  1  0  0  0  0
 17 18  1  0  0  0  0
 18 19  1  0  0  0  0
 17 20  1  0  0  0  0
 19 20  1  0  0  0  0
 19 21  1  0  0  0  0
 21 22  1  0  0  0  0
 22 23  1  0  0  0  0
 23 24  1  0  0  0  0
 19 25  1  0  0  0  0
 24 25  1  0  0  0  0
 23 26  1  0  0  0  0
 26 27  2  0  0  0  0
 26 28  1  0  0  0  0
 28 29  1  0  0  0  0
 29 30  1  0  0  0  0
 30 31  2  0  0  0  0
 31 32  1  0  0  0  0
 29 33  2  0  0  0  0
 32 33  1  0  0  0  0
 32 34  1  0  0  0  0
 34 35  2  0  0  0  0
 31 36  1  0  0  0  0
 35 36  1  0  0  0  0
 35 37  1  0  0  0  0
 38 39  1  0  0  0  0
 39 40  1  0  0  0  0
 40 41  2  0  0  0  0
 41 42  1  0  0  0  0
 42 43  2  0  0  0  0
 39 44  2  0  0  0  0
 43 44  1  0  0  0  0
 43 45  1  0  0  0  0
 45 46  1  0  0  0  0
 46 47  2  0  0  0  0
 47 48  1  0  0  0  0
 48 49  2  0  0  0  0
 45 50  2  0  0  0  0
 49 50  1  0  0  0  0
 49 51  1  0  0  0  0
 51 52  1  0  0  0  0
 48 53  1  0  0  0  0
 52 53  1  0  0  0  0
 53 54  1  0  0  0  0
 54 55  1  0  0  0  0
 55 56  1  0  0  0  0
 54 57  1  0  0  0  0
 56 57  1  0  0  0  0
 56 58  1  0  0  0  0
 58 59  1  0  0  0  0
 59 60  1  0  0  0  0
 60 61  1  0  0  0  0
 56 62  1  0  0  0  0
 61 62  1  0  0  0  0
 60 63  1  0  0  0  0
 63 64  2  0  0  0  0
 63 65  1  0  0  0  0
 65 66  1  0  0  0  0
 66 67  1  0  0  0  0
 67 68  2  0  0  0  0
 68 69  1  0  0  0  0
 66 70  2  0  0  0  0
 69 70  1  0  0  0  0
 69 71  1  0  0  0  0
 71 72  2  0  0  0  0
 68 73  1  0  0  0  0
 72 73  1  0  0  0  0
 72 74  1  0  0  0  0
M  END
$$$$
