8WE8
  PyMOL3.1          3D                             0

 28 29  0  0  0  0  0  0  0  0999 V2000
  152.4240  169.5800  147.4500 C   0  0  0  0  0  0  0  0  0  0  0  0
  149.7500  172.8880  152.8420 C   0  0  0  0  0  0  0  0  0  0  0  0
  149.1330  168.3710  155.2710 C   0  0  0  0  0  0  0  0  0  0  0  0
  148.1000  170.3530  148.6880 C   0  0  0  0  0  0  0  0  0  0  0  0
  149.1500  171.1130  149.1500 C   0  0  0  0  0  0  0  0  0  0  0  0
  147.8510  169.1150  149.2270 C   0  0  0  0  0  0  0  0  0  0  0  0
  149.9430  170.6260  150.1500 C   0  0  0  0  0  0  0  0  0  0  0  0
  152.4720  168.3450  148.3340 C   0  0  0  0  0  0  0  0  0  0  0  0
  150.1230  168.3410  154.1280 C   0  0  0  0  0  0  0  0  0  0  0  0
  149.9440  170.7120  153.6090 C   0  0  0  0  0  0  0  0  0  0  0  0
  152.3430  167.5820  150.4940 C   0  0  0  0  0  0  0  0  0  0  0  0
  151.3850  166.7710  152.6520 C   0  0  0  0  0  0  0  0  0  0  0  0
  150.0860  169.2570  153.2020 C   0  0  0  0  0  0  0  0  0  0  0  0
  151.3160  167.6180  151.6270 C   0  0  0  0  0  0  0  0  0  0  0  0
  148.6410  168.6210  150.2350 C   0  0  0  0  0  0  0  0  0  0  0  0
  150.8600  167.1360  153.9360 N   0  0  0  0  0  0  0  0  0  0  0  0
  150.3930  171.1280  154.6100 O   0  0  0  0  0  0  0  0  0  0  0  0
  152.9600  166.6170  150.2560 O   0  0  0  0  0  0  0  0  0  0  0  0
  149.2820  171.5820  152.7650 O   0  0  0  0  0  0  0  0  0  0  0  0
  152.5500  168.6950  149.6850 O   0  0  0  0  0  0  0  0  0  0  0  0
  149.7120  169.3900  150.7170 C   0  0  0  0  0  0  0  0  0  0  0  0
  150.7280  169.0320  151.8280 C   0  0  0  0  0  0  0  0  0  0  0  0
  148.1630  167.0110  150.7990 Cl  0  0  0  0  0  0  0  0  0  0  0  0
  151.8250  165.3210  152.5430 C   0  0  0  0  0  0  0  0  0  0  0  0
  151.3730  164.7630  151.3590 O   0  0  0  0  0  0  0  0  0  0  0  0
  150.2590  163.9300  151.4790 C   0  0  0  0  0  0  0  0  0  0  0  0
  150.6720  162.4940  151.1770 C   0  0  0  0  0  0  0  0  0  0  0  0
  149.5530  161.6010  151.4000 N   0  0  0  0  0  0  0  0  0  0  0  0
  4  5  1  0  0  0  0
  4  6  2  0  0  0  0
  5  7  2  0  0  0  0
  1  8  1  0  0  0  0
  3  9  1  0  0  0  0
  9 13  2  0  0  0  0
 10 13  1  0  0  0  0
 11 14  1  0  0  0  0
 12 14  2  0  0  0  0
  6 15  1  0  0  0  0
  9 16  1  0  0  0  0
 12 16  1  0  0  0  0
 10 17  2  0  0  0  0
 11 18  2  0  0  0  0
  2 19  1  0  0  0  0
 10 19  1  0  0  0  0
  8 20  1  0  0  0  0
 11 20  1  0  0  0  0
  7 21  1  0  0  0  0
 15 21  2  0  0  0  0
 13 22  1  0  0  0  0
 14 22  1  0  0  0  0
 21 22  1  0  0  0  0
 15 23  1  0  0  0  0
 12 24  1  0  0  0  0
 24 25  1  0  0  0  0
 25 26  1  0  0  0  0
 26 27  1  0  0  0  0
 27 28  1  0  0  0  0
M  END
$$$$
