6X19
  PyMOL3.1          3D                             0

 65 74  0  0  0  0  0  0  0  0999 V2000
  128.0890  105.0700   88.4340 C   0  0  0  0  0  0  0  0  0  0  0  0
  129.3300  105.6710   87.9340 C   0  0  0  0  0  0  0  0  0  0  0  0
  129.3780  106.4200   86.7070 C   0  0  0  0  0  0  0  0  0  0  0  0
  128.1420  106.5880   85.9720 C   0  0  0  0  0  0  0  0  0  0  0  0
  126.8810  106.0190   86.4100 C   0  0  0  0  0  0  0  0  0  0  0  0
  126.8800  105.2600   87.6520 C   0  0  0  0  0  0  0  0  0  0  0  0
  130.8170  107.1490   86.1050 N   0  0  0  0  0  0  0  0  0  0  0  0
  128.0920  104.2150   89.8290 C   0  0  0  0  0  0  0  0  0  0  0  0
  125.5260  106.2400   85.5220 C   0  0  0  0  0  0  0  0  0  0  0  0
  132.0910  106.4930   85.9290 N   0  0  0  0  0  0  0  0  0  0  0  0
  133.0000  107.4200   85.4170 C   0  0  0  0  0  0  0  0  0  0  0  0
  132.3290  108.6760   85.2470 C   0  0  0  0  0  0  0  0  0  0  0  0
  130.9620  108.5180   85.6990 C   0  0  0  0  0  0  0  0  0  0  0  0
  129.7780  109.4590   85.7310 N   0  0  0  0  0  0  0  0  0  0  0  0
  134.4960  107.2550   85.0340 C   0  0  0  0  0  0  0  0  0  0  0  0
  135.0740  108.5160   84.1760 C   0  0  0  0  0  0  0  0  0  0  0  0
  134.6320  109.8240   84.7340 N   0  0  0  0  0  0  0  0  0  0  0  0
  133.0940  109.8930   84.7130 C   0  0  0  0  0  0  0  0  0  0  0  0
  132.5910  110.1140   83.2650 C   0  0  0  0  0  0  0  0  0  0  0  0
  135.4420  110.8610   85.2830 C   0  0  0  0  0  0  0  0  0  0  0  0
  136.6850  110.7450   85.3010 O   0  0  0  0  0  0  0  0  0  0  0  0
  134.8840  112.2130   85.9100 C   0  0  0  0  0  0  0  0  0  0  0  0
  134.8210  112.5200   87.3390 N   0  0  0  0  0  0  0  0  0  0  0  0
  134.1880  113.8940   87.4440 C   0  0  0  0  0  0  0  0  0  0  0  0
  133.9070  114.3630   86.1550 C   0  0  0  0  0  0  0  0  0  0  0  0
  134.3450  113.2870   85.1950 C   0  0  0  0  0  0  0  0  0  0  0  0
  135.3040  111.5050   88.3500 C   0  0  0  0  0  0  0  0  0  0  0  0
  133.8290  114.8140   88.5970 C   0  0  0  0  0  0  0  0  0  0  0  0
  133.2570  116.0490   88.4040 C   0  0  0  0  0  0  0  0  0  0  0  0
  132.9540  116.5730   87.0080 C   0  0  0  0  0  0  0  0  0  0  0  0
  133.2700  115.7380   85.9610 C   0  0  0  0  0  0  0  0  0  0  0  0
  132.2780  118.0070   86.7590 N   0  0  0  0  0  0  0  0  0  0  0  0
  131.3410  118.1660   85.5570 C   0  0  0  0  0  0  0  0  0  0  0  0
  130.7280  119.6130   85.4160 C   0  0  0  0  0  0  0  0  0  0  0  0
  131.3620  120.5150   86.2890 O   0  0  0  0  0  0  0  0  0  0  0  0
  131.1940  120.1870   87.6520 C   0  0  0  0  0  0  0  0  0  0  0  0
  131.4920  118.6440   87.8720 C   0  0  0  0  0  0  0  0  0  0  0  0
  129.7690  120.5460   88.1130 C   0  0  0  0  0  0  0  0  0  0  0  0
  132.2600  120.9940   88.4810 C   0  0  0  0  0  0  0  0  0  0  0  0
  129.3670  110.4360   86.7610 C   0  0  0  0  0  0  0  0  0  0  0  0
  128.1730  111.0710   86.3770 C   0  0  0  0  0  0  0  0  0  0  0  0
  127.7180  110.5420   85.0640 N   0  0  0  0  0  0  0  0  0  0  0  0
  128.7210  109.5840   84.7660 C   0  0  0  0  0  0  0  0  0  0  0  0
  128.7010  108.9090   83.7430 O   0  0  0  0  0  0  0  0  0  0  0  0
  126.4240  110.8450   84.1240 C   0  0  0  0  0  0  0  0  0  0  0  0
  126.4020  111.4350   82.8760 C   0  0  0  0  0  0  0  0  0  0  0  0
  125.1680  111.6700   82.0050 C   0  0  0  0  0  0  0  0  0  0  0  0
  123.9300  111.2190   82.5100 C   0  0  0  0  0  0  0  0  0  0  0  0
  123.8830  110.5470   83.8480 C   0  0  0  0  0  0  0  0  0  0  0  0
  125.0340  110.3620   84.5970 C   0  0  0  0  0  0  0  0  0  0  0  0
  124.8600  112.2810   80.6700 C   0  0  0  0  0  0  0  0  0  0  0  0
  123.5040  112.1830   80.4240 N   0  0  0  0  0  0  0  0  0  0  0  0
  122.9110  111.5450   81.5210 N   0  0  0  0  0  0  0  0  0  0  0  0
  121.4060  111.2630   81.5930 C   0  0  0  0  0  0  0  0  0  0  0  0
  135.9950  112.3770   89.4920 C   0  0  0  0  0  0  0  0  0  0  0  0
  136.0890  110.9820   89.8150 C   0  0  0  0  0  0  0  0  0  0  0  0
  137.3000  110.1290   89.8340 C   0  0  0  0  0  0  0  0  0  0  0  0
  134.3000  110.2010   88.6550 C   0  0  0  0  0  0  0  0  0  0  0  0
  134.5600  108.8900   88.7210 N   0  0  0  0  0  0  0  0  0  0  0  0
  133.4260  108.1980   88.9700 O   0  0  0  0  0  0  0  0  0  0  0  0
  132.3760  109.0390   89.0560 C   0  0  0  0  0  0  0  0  0  0  0  0
  132.8860  110.3310   88.8500 N   0  0  0  0  0  0  0  0  0  0  0  0
  131.2130  108.7230   89.2710 O   0  0  0  0  0  0  0  0  0  0  0  0
  125.7160  104.7130   88.0880 F   0  0  0  0  0  0  0  0  0  0  0  0
  127.5570  111.8920   82.3310 F   0  0  0  0  0  0  0  0  0  0  0  0
  1  2  2  0  0  0  0
  2  3  1  0  0  0  0
  3  4  2  0  0  0  0
  4  5  1  0  0  0  0
  1  6  1  0  0  0  0
  5  6  2  0  0  0  0
  3  7  1  0  0  0  0
  1  8  1  0  0  0  0
  5  9  1  0  0  0  0
  7 10  1  0  0  0  0
 10 11  2  0  0  0  0
 11 12  1  0  0  0  0
  7 13  1  0  0  0  0
 12 13  2  0  0  0  0
 13 14  1  0  0  0  0
 11 15  1  0  0  0  0
 15 16  1  0  0  0  0
 16 17  1  0  0  0  0
 12 18  1  0  0  0  0
 17 18  1  0  0  0  0
 18 19  1  0  0  0  0
 17 20  1  0  0  0  0
 20 21  2  0  0  0  0
 20 22  1  0  0  0  0
 22 23  1  0  0  0  0
 23 24  1  0  0  0  0
 24 25  2  0  0  0  0
 22 26  2  0  0  0  0
 25 26  1  0  0  0  0
 23 27  1  0  0  0  0
 24 28  1  0  0  0  0
 28 29  2  0  0  0  0
 29 30  1  0  0  0  0
 25 31  1  0  0  0  0
 30 31  2  0  0  0  0
 30 32  1  0  0  0  0
 32 33  1  0  0  0  0
 33 34  1  0  0  0  0
 34 35  1  0  0  0  0
 35 36  1  0  0  0  0
 32 37  1  0  0  0  0
 36 37  1  0  0  0  0
 36 38  1  0  0  0  0
 36 39  1  0  0  0  0
 14 40  1  0  0  0  0
 40 41  2  0  0  0  0
 41 42  1  0  0  0  0
 14 43  1  0  0  0  0
 42 43  1  0  0  0  0
 43 44  2  0  0  0  0
 42 45  1  0  0  0  0
 45 46  2  0  0  0  0
 46 47  1  0  0  0  0
 47 48  2  0  0  0  0
 48 49  1  0  0  0  0
 45 50  1  0  0  0  0
 49 50  2  0  0  0  0
 47 51  1  0  0  0  0
 51 52  2  0  0  0  0
 48 53  1  0  0  0  0
 52 53  1  0  0  0  0
 53 54  1  0  0  0  0
 27 55  1  0  0  0  0
 55 56  1  0  0  0  0
 56 57  1  0  0  0  0
 27 58  1  0  0  0  0
 58 59  2  0  0  0  0
 59 60  1  0  0  0  0
 60 61  1  0  0  0  0
 58 62  1  0  0  0  0
 61 62  1  0  0  0  0
 61 63  2  0  0  0  0
  6 64  1  0  0  0  0
 46 65  1  0  0  0  0
M  END
$$$$
