7RHJ
  PyMOL3.1          3D                             0

 29 31  0  0  0  0  0  0  0  0999 V2000
  125.5640  121.6110  102.9310 S   0  0  0  0  0  0  0  0  0  0  0  0
  123.2520  120.0090  105.8980 O   0  0  0  0  0  0  0  0  0  0  0  0
  121.8830  119.7440  103.6360 O   0  0  0  0  0  0  0  0  0  0  0  0
  125.9690  115.1180  103.4170 O   0  0  0  0  0  0  0  0  0  0  0  0
  122.9490  121.7140  107.4180 O   0  0  0  0  0  0  0  0  0  0  0  0
  122.3940  121.8960  102.9200 N   0  0  0  0  0  0  0  0  0  0  0  0
  121.0860  122.4120   99.4840 N   0  0  0  0  0  0  0  0  0  0  0  0
  125.0050  120.6160  104.3710 C   0  0  0  0  0  0  0  0  0  0  0  0
  123.5780  120.9160  104.8540 C   0  0  0  0  0  0  0  0  0  0  0  0
  122.5330  120.7840  103.7540 C   0  0  0  0  0  0  0  0  0  0  0  0
  121.4170  121.8520  101.8360 C   0  0  0  0  0  0  0  0  0  0  0  0
  123.1650  123.0900  103.0850 C   0  0  0  0  0  0  0  0  0  0  0  0
  125.2620  119.1360  104.1160 C   0  0  0  0  0  0  0  0  0  0  0  0
  124.5710  123.0860  103.1130 C   0  0  0  0  0  0  0  0  0  0  0  0
  122.0870  122.1370  100.5010 C   0  0  0  0  0  0  0  0  0  0  0  0
  122.4900  124.3120  103.2410 C   0  0  0  0  0  0  0  0  0  0  0  0
  125.2670  124.2920  103.2850 C   0  0  0  0  0  0  0  0  0  0  0  0
  125.1010  118.6190  102.8360 C   0  0  0  0  0  0  0  0  0  0  0  0
  125.6580  118.3140  105.1640 C   0  0  0  0  0  0  0  0  0  0  0  0
  123.1920  125.5020  103.4130 C   0  0  0  0  0  0  0  0  0  0  0  0
  124.5780  125.4900  103.4340 C   0  0  0  0  0  0  0  0  0  0  0  0
  125.3380  117.2670  102.6030 C   0  0  0  0  0  0  0  0  0  0  0  0
  125.8960  116.9620  104.9280 C   0  0  0  0  0  0  0  0  0  0  0  0
  119.9070  121.5670   99.6880 C   0  0  0  0  0  0  0  0  0  0  0  0
  121.6400  122.2020   98.1470 C   0  0  0  0  0  0  0  0  0  0  0  0
  125.7360  116.4370  103.6490 C   0  0  0  0  0  0  0  0  0  0  0  0
  122.7350  120.5770  107.0250 C   0  0  0  0  0  0  0  0  0  0  0  0
  121.8510  119.5930  107.7280 C   0  0  0  0  0  0  0  0  0  0  0  0
  125.0160  114.4120  102.6240 C   0  0  0  0  0  0  0  0  0  0  0  0
  1  8  1  0  0  0  0
  2  9  1  0  0  0  0
  8  9  1  0  0  0  0
  3 10  2  0  0  0  0
  6 10  1  0  0  0  0
  9 10  1  0  0  0  0
  6 11  1  0  0  0  0
  6 12  1  0  0  0  0
  8 13  1  0  0  0  0
  1 14  1  0  0  0  0
 12 14  2  0  0  0  0
  7 15  1  0  0  0  0
 11 15  1  0  0  0  0
 12 16  1  0  0  0  0
 14 17  1  0  0  0  0
 13 18  1  0  0  0  0
 13 19  2  0  0  0  0
 16 20  2  0  0  0  0
 17 21  2  0  0  0  0
 20 21  1  0  0  0  0
 18 22  2  0  0  0  0
 19 23  1  0  0  0  0
  7 24  1  0  0  0  0
  7 25  1  0  0  0  0
  4 26  1  0  0  0  0
 22 26  1  0  0  0  0
 23 26  2  0  0  0  0
  2 27  1  0  0  0  0
  5 27  2  0  0  0  0
 27 28  1  0  0  0  0
  4 29  1  0  0  0  0
M  END
$$$$
