7CX3
  PyMOL3.1          3D                             0

 34 37  0  0  0  0  0  0  0  0999 V2000
   84.7580  114.4490  122.1470 C   0  0  0  0  0  0  0  0  0  0  0  0
   83.5730  114.9460  121.4790 N   0  0  0  0  0  0  0  0  0  0  0  0
   80.9540  114.7600  121.4930 O   0  0  0  0  0  0  0  0  0  0  0  0
   82.1800  113.9720  121.3440 S   0  0  0  0  0  0  0  0  0  0  0  0
   83.5450  116.3110  120.9940 C   0  0  0  0  0  0  0  0  0  0  0  0
   88.1790  111.6550  118.3560 N   0  0  0  0  0  0  0  0  0  0  0  0
   82.0660  113.0280  122.4580 O   0  0  0  0  0  0  0  0  0  0  0  0
   85.6540  113.7150  121.1500 C   0  0  0  0  0  0  0  0  0  0  0  0
   82.5940  111.1000  118.4720 N   0  0  0  0  0  0  0  0  0  0  0  0
   80.9410  117.9090  124.9220 O   0  0  0  0  0  0  0  0  0  0  0  0
   83.4260  117.2520  122.1870 C   0  0  0  0  0  0  0  0  0  0  0  0
   88.1570  110.3140  118.2650 N   0  0  0  0  0  0  0  0  0  0  0  0
   78.5400  118.2870  126.5440 O   0  0  0  0  0  0  0  0  0  0  0  0
   82.2100  113.1140  119.7500 C   0  0  0  0  0  0  0  0  0  0  0  0
   78.0320  119.5010  124.8050 O   0  0  0  0  0  0  0  0  0  0  0  0
   86.6760  114.4930  120.3250 C   0  0  0  0  0  0  0  0  0  0  0  0
   85.5520  112.4120  121.0060 C   0  0  0  0  0  0  0  0  0  0  0  0
   82.1910  117.1780  123.0780 C   0  0  0  0  0  0  0  0  0  0  0  0
   84.3770  118.1240  122.4450 C   0  0  0  0  0  0  0  0  0  0  0  0
   87.3280  112.3500  119.3010 C   0  0  0  0  0  0  0  0  0  0  0  0
   87.4500  113.8620  119.4680 C   0  0  0  0  0  0  0  0  0  0  0  0
   86.4490  111.6780  120.0120 C   0  0  0  0  0  0  0  0  0  0  0  0
   81.8850  113.7830  118.6020 C   0  0  0  0  0  0  0  0  0  0  0  0
   82.0750  117.9850  124.1080 C   0  0  0  0  0  0  0  0  0  0  0  0
   82.5600  111.7660  119.6400 C   0  0  0  0  0  0  0  0  0  0  0  0
   84.2420  119.0620  123.6420 C   0  0  0  0  0  0  0  0  0  0  0  0
   83.1760  118.9950  124.4110 C   0  0  0  0  0  0  0  0  0  0  0  0
   81.9190  113.1230  117.4180 C   0  0  0  0  0  0  0  0  0  0  0  0
   82.2710  111.8000  117.3860 C   0  0  0  0  0  0  0  0  0  0  0  0
   89.0130  112.3370  117.5460 C   0  0  0  0  0  0  0  0  0  0  0  0
   89.6660  111.3910  116.7860 C   0  0  0  0  0  0  0  0  0  0  0  0
   80.3830  119.1500  125.2410 C   0  0  0  0  0  0  0  0  0  0  0  0
   89.0970  110.1080  117.2680 C   0  0  0  0  0  0  0  0  0  0  0  0
   78.8980  118.9700  125.5480 C   0  0  0  0  0  0  0  0  0  0  0  0
  1  2  1  0  0  0  0
  2  4  1  0  0  0  0
  3  4  2  0  0  0  0
  2  5  1  0  0  0  0
  4  7  2  0  0  0  0
  1  8  1  0  0  0  0
  5 11  1  0  0  0  0
  6 12  1  0  0  0  0
  4 14  1  0  0  0  0
  8 16  2  0  0  0  0
  8 17  1  0  0  0  0
 11 18  1  0  0  0  0
 11 19  2  0  0  0  0
  6 20  1  0  0  0  0
 16 21  1  0  0  0  0
 20 21  2  0  0  0  0
 17 22  2  0  0  0  0
 20 22  1  0  0  0  0
 14 23  2  0  0  0  0
 10 24  1  0  0  0  0
 18 24  2  0  0  0  0
  9 25  2  0  0  0  0
 14 25  1  0  0  0  0
 19 26  1  0  0  0  0
 24 27  1  0  0  0  0
 26 27  2  0  0  0  0
 23 28  1  0  0  0  0
  9 29  1  0  0  0  0
 28 29  2  0  0  0  0
  6 30  1  0  0  0  0
 30 31  2  0  0  0  0
 10 32  1  0  0  0  0
 12 33  2  0  0  0  0
 31 33  1  0  0  0  0
 13 34  1  0  0  0  0
 15 34  2  0  0  0  0
 32 34  1  0  0  0  0
M  END
$$$$
