7F8U
  PyMOL3.1          3D                             0

 28 31  0  0  0  0  0  0  0  0999 V2000
   10.9580   20.7780   58.6200 N   0  0  0  0  0  0  0  0  0  0  0  0
   11.1170   22.0950   59.2110 C   0  0  0  0  0  0  0  0  0  0  0  0
    4.3820   19.8750   49.8760 C   0  0  0  0  0  0  0  0  0  0  0  0
    5.6960   19.5180   50.1600 C   0  0  0  0  0  0  0  0  0  0  0  0
   12.2310   17.0220   59.7330 C   0  0  0  0  0  0  0  0  0  0  0  0
   12.5760   18.0860   60.5580 C   0  0  0  0  0  0  0  0  0  0  0  0
    3.7400   20.8610   50.6280 C   0  0  0  0  0  0  0  0  0  0  0  0
    6.3760   20.1500   51.1880 C   0  0  0  0  0  0  0  0  0  0  0  0
   11.4930   17.2760   58.5940 C   0  0  0  0  0  0  0  0  0  0  0  0
   12.1930   19.3860   60.2770 C   0  0  0  0  0  0  0  0  0  0  0  0
    6.7060   23.1700   53.2310 C   0  0  0  0  0  0  0  0  0  0  0  0
   10.3740   19.1510   57.2610 C   0  0  0  0  0  0  0  0  0  0  0  0
    9.5990   21.4080   56.5520 C   0  0  0  0  0  0  0  0  0  0  0  0
    4.4270   21.4830   51.6550 C   0  0  0  0  0  0  0  0  0  0  0  0
    6.5040   21.7880   53.0420 C   0  0  0  0  0  0  0  0  0  0  0  0
    7.7410   21.6050   54.9210 C   0  0  0  0  0  0  0  0  0  0  0  0
    5.7310   21.1300   51.9230 C   0  0  0  0  0  0  0  0  0  0  0  0
   10.3100   20.5010   57.5100 C   0  0  0  0  0  0  0  0  0  0  0  0
   11.1040   18.5890   58.3070 C   0  0  0  0  0  0  0  0  0  0  0  0
    9.7690   22.6970   59.5910 C   0  0  0  0  0  0  0  0  0  0  0  0
    8.7200   22.0170   59.5060 O   0  0  0  0  0  0  0  0  0  0  0  0
    7.0830   20.9890   53.9630 N   0  0  0  0  0  0  0  0  0  0  0  0
    8.4440   20.8530   55.9180 N   0  0  0  0  0  0  0  0  0  0  0  0
    9.9790   22.4930   56.3170 O   0  0  0  0  0  0  0  0  0  0  0  0
    7.6540   23.2690   54.6280 S   0  0  0  0  0  0  0  0  0  0  0  0
   11.4440   19.6390   59.1320 C   0  0  0  0  0  0  0  0  0  0  0  0
    3.6590   22.7590   52.6210 Cl  0  0  0  0  0  0  0  0  0  0  0  0
    9.7020   23.8820   59.9900 O   0  0  0  0  0  0  0  0  0  0  0  0
  1  2  1  0  0  0  0
  3  4  2  0  0  0  0
  5  6  2  0  0  0  0
  3  7  1  0  0  0  0
  4  8  1  0  0  0  0
  5  9  1  0  0  0  0
  6 10  1  0  0  0  0
  7 14  2  0  0  0  0
 11 15  2  0  0  0  0
  8 17  2  0  0  0  0
 14 17  1  0  0  0  0
 15 17  1  0  0  0  0
  1 18  1  0  0  0  0
 12 18  2  0  0  0  0
 13 18  1  0  0  0  0
  9 19  2  0  0  0  0
 12 19  1  0  0  0  0
  2 20  1  0  0  0  0
 20 21  2  0  0  0  0
 15 22  1  0  0  0  0
 16 22  2  0  0  0  0
 13 23  1  0  0  0  0
 16 23  1  0  0  0  0
 13 24  2  0  0  0  0
 11 25  1  0  0  0  0
 16 25  1  0  0  0  0
  1 26  1  0  0  0  0
 10 26  2  0  0  0  0
 19 26  1  0  0  0  0
 14 27  1  0  0  0  0
 20 28  1  0  0  0  0
M  END
$$$$
