7SCF
  PyMOL3.1          3D                             0

 15 16  0  0  0  0  0  0  0  0999 V2000
   -4.8990  -15.4980   16.9650 O   0  0  0  0  0  0  0  0  0  0  0  0
   -5.6410  -15.5740   15.9480 C   0  0  0  0  0  0  0  0  0  0  0  0
   -5.0800  -16.1590   14.6470 C   0  0  0  0  0  0  0  0  0  0  0  0
   -6.0870  -16.9890   14.0290 N   0  0  0  0  0  0  0  0  0  0  0  0
   -6.9120  -16.6120   13.0210 C   0  0  0  0  0  0  0  0  0  0  0  0
   -7.7200  -17.6930   12.7330 C   0  0  0  0  0  0  0  0  0  0  0  0
   -7.3820  -18.7040   13.5620 C   0  0  0  0  0  0  0  0  0  0  0  0
   -6.3690  -18.2650   14.3700 C   0  0  0  0  0  0  0  0  0  0  0  0
   -4.6680  -15.0460   13.6920 C   0  0  0  0  0  0  0  0  0  0  0  0
   -3.5530  -14.2220   14.3260 C   0  0  0  0  0  0  0  0  0  0  0  0
   -2.6100  -14.6900   15.1870 C   0  0  0  0  0  0  0  0  0  0  0  0
   -1.8330  -13.6920   15.5240 N   0  0  0  0  0  0  0  0  0  0  0  0
   -2.2760  -12.5960   14.8970 C   0  0  0  0  0  0  0  0  0  0  0  0
   -3.3390  -12.9440   14.1600 N   0  0  0  0  0  0  0  0  0  0  0  0
   -6.8390  -15.1770   16.0150 O   0  0  0  0  0  0  0  0  0  0  0  0
  1  2  1  0  0  0  0
  2  3  1  0  0  0  0
  3  4  1  0  0  0  0
  4  5  1  0  0  0  0
  5  6  2  0  0  0  0
  6  7  1  0  0  0  0
  4  8  1  0  0  0  0
  7  8  2  0  0  0  0
  3  9  1  0  0  0  0
  9 10  1  0  0  0  0
 10 11  2  0  0  0  0
 11 12  1  0  0  0  0
 12 13  2  0  0  0  0
 10 14  1  0  0  0  0
 13 14  1  0  0  0  0
  2 15  2  0  0  0  0
M  END
$$$$
