8V8A
  PyMOL3.1          3D                             0

 35 36  0  0  0  0  0  0  0  0999 V2000
  144.7860  125.9840  125.0580 Cl  0  0  0  0  0  0  0  0  0  0  0  0
  144.3820  129.6570  127.2440 C   0  0  0  0  0  0  0  0  0  0  0  0
  144.5110  128.3850  126.6150 O   0  0  0  0  0  0  0  0  0  0  0  0
  144.6270  127.2910  127.4210 C   0  0  0  0  0  0  0  0  0  0  0  0
  144.6040  127.3350  128.8040 C   0  0  0  0  0  0  0  0  0  0  0  0
  144.7180  126.1670  129.5360 C   0  0  0  0  0  0  0  0  0  0  0  0
  144.6280  126.0930  130.8960 O   0  0  0  0  0  0  0  0  0  0  0  0
  145.0670  127.2170  131.6510 C   0  0  0  0  0  0  0  0  0  0  0  0
  144.8750  124.9390  128.8980 C   0  0  0  0  0  0  0  0  0  0  0  0
  144.9550  123.8050  129.7330 N   0  0  0  0  0  0  0  0  0  0  0  0
  145.1690  122.5090  129.3490 C   0  0  0  0  0  0  0  0  0  0  0  0
  145.4270  122.1610  128.2000 O   0  0  0  0  0  0  0  0  0  0  0  0
  145.1060  121.5910  130.3840 N   0  0  0  0  0  0  0  0  0  0  0  0
  145.1630  120.2040  130.3080 C   0  0  0  0  0  0  0  0  0  0  0  0
  145.2740  119.4110  129.1500 C   0  0  0  0  0  0  0  0  0  0  0  0
  145.2500  118.1530  129.5930 C   0  0  0  0  0  0  0  0  0  0  0  0
  145.3030  116.8250  128.9300 C   0  0  0  0  0  0  0  0  0  0  0  0
  145.1460  118.1430  130.9370 O   0  0  0  0  0  0  0  0  0  0  0  0
  145.0930  119.4790  131.3910 N   0  0  0  0  0  0  0  0  0  0  0  0
  144.9030  124.8950  127.5100 C   0  0  0  0  0  0  0  0  0  0  0  0
  144.7740  126.0620  126.7880 C   0  0  0  0  0  0  0  0  0  0  0  0
  144.3080  130.3410  126.5600 H   0  0  0  0  0  0  0  0  0  0  0  0
  143.5870  129.6560  127.7980 H   0  0  0  0  0  0  0  0  0  0  0  0
  145.1670  129.8190  127.7910 H   0  0  0  0  0  0  0  0  0  0  0  0
  144.5110  128.1500  129.2410 H   0  0  0  0  0  0  0  0  0  0  0  0
  144.9470  127.0300  132.5950 H   0  0  0  0  0  0  0  0  0  0  0  0
  146.0050  127.3780  131.4630 H   0  0  0  0  0  0  0  0  0  0  0  0
  144.5410  127.9920  131.3990 H   0  0  0  0  0  0  0  0  0  0  0  0
  145.3480  119.7000  128.2690 H   0  0  0  0  0  0  0  0  0  0  0  0
  145.2590  116.1310  129.6070 H   0  0  0  0  0  0  0  0  0  0  0  0
  144.5500  116.7430  128.3250 H   0  0  0  0  0  0  0  0  0  0  0  0
  146.1340  116.7510  128.4350 H   0  0  0  0  0  0  0  0  0  0  0  0
  145.0080  124.0820  127.0700 H   0  0  0  0  0  0  0  0  0  0  0  0
  144.8590  123.9430  130.5760 H   0  0  0  0  0  0  0  0  0  0  0  0
  145.0210  121.9200  131.1740 H   0  0  0  0  0  0  0  0  0  0  0  0
  2  3  1  0  0  0  0
  3  4  1  0  0  0  0
  4  5  1  0  0  0  0
  5  6  2  0  0  0  0
  6  7  1  0  0  0  0
  7  8  1  0  0  0  0
  6  9  1  0  0  0  0
  9 10  1  0  0  0  0
 10 11  1  0  0  0  0
 11 12  2  0  0  0  0
 11 13  1  0  0  0  0
 13 14  1  0  0  0  0
 14 15  1  0  0  0  0
 15 16  2  0  0  0  0
 16 17  1  0  0  0  0
 16 18  1  0  0  0  0
 14 19  2  0  0  0  0
 18 19  1  0  0  0  0
  9 20  2  0  0  0  0
  1 21  1  0  0  0  0
  4 21  2  0  0  0  0
 20 21  1  0  0  0  0
  2 22  1  0  0  0  0
  2 23  1  0  0  0  0
  2 24  1  0  0  0  0
  5 25  1  0  0  0  0
  8 26  1  0  0  0  0
  8 27  1  0  0  0  0
  8 28  1  0  0  0  0
 15 29  1  0  0  0  0
 17 30  1  0  0  0  0
 17 31  1  0  0  0  0
 17 32  1  0  0  0  0
 20 33  1  0  0  0  0
 10 34  1  0  0  0  0
 13 35  1  0  0  0  0
M  END
$$$$
