8V8A
  PyMOL3.1          3D                             0

 35 36  0  0  0  0  0  0  0  0999 V2000
  126.1760  145.1650  125.0620 Cl  0  0  0  0  0  0  0  0  0  0  0  0
  128.6610  142.4310  127.2470 C   0  0  0  0  0  0  0  0  0  0  0  0
  127.8100  143.3850  126.6190 O   0  0  0  0  0  0  0  0  0  0  0  0
  127.0720  144.2020  127.4250 C   0  0  0  0  0  0  0  0  0  0  0  0
  127.1170  144.1800  128.8080 C   0  0  0  0  0  0  0  0  0  0  0  0
  126.3390  145.0580  129.5400 C   0  0  0  0  0  0  0  0  0  0  0  0
  126.3680  145.1700  130.9000 O   0  0  0  0  0  0  0  0  0  0  0  0
  126.6730  144.0030  131.6550 C   0  0  0  0  0  0  0  0  0  0  0  0
  125.4900  145.9590  128.9020 C   0  0  0  0  0  0  0  0  0  0  0  0
  124.7590  146.8300  129.7360 N   0  0  0  0  0  0  0  0  0  0  0  0
  123.8240  147.7530  129.3520 C   0  0  0  0  0  0  0  0  0  0  0  0
  123.4110  147.8830  128.2030 O   0  0  0  0  0  0  0  0  0  0  0  0
  123.3360  148.5330  130.3870 N   0  0  0  0  0  0  0  0  0  0  0  0
  122.4750  149.6220  130.3110 C   0  0  0  0  0  0  0  0  0  0  0  0
  121.9190  150.1980  129.1530 C   0  0  0  0  0  0  0  0  0  0  0  0
  121.2000  151.2300  129.5950 C   0  0  0  0  0  0  0  0  0  0  0  0
  120.3760  152.2740  128.9320 C   0  0  0  0  0  0  0  0  0  0  0  0
  121.2780  151.3000  130.9390 O   0  0  0  0  0  0  0  0  0  0  0  0
  122.1060  150.2500  131.3940 N   0  0  0  0  0  0  0  0  0  0  0  0
  125.4420  145.9790  127.5140 C   0  0  0  0  0  0  0  0  0  0  0  0
  126.2320  145.1100  126.7920 C   0  0  0  0  0  0  0  0  0  0  0  0
  129.1230  141.9210  126.5640 H   0  0  0  0  0  0  0  0  0  0  0  0
  129.3040  142.8990  127.8020 H   0  0  0  0  0  0  0  0  0  0  0  0
  128.1210  141.8390  127.7950 H   0  0  0  0  0  0  0  0  0  0  0  0
  127.6720  143.5750  129.2450 H   0  0  0  0  0  0  0  0  0  0  0  0
  126.6600  144.2250  132.5990 H   0  0  0  0  0  0  0  0  0  0  0  0
  126.0090  143.3220  131.4660 H   0  0  0  0  0  0  0  0  0  0  0  0
  127.5540  143.6850  131.4030 H   0  0  0  0  0  0  0  0  0  0  0  0
  122.0300  149.9200  128.2720 H   0  0  0  0  0  0  0  0  0  0  0  0
  120.0040  152.8610  129.6090 H   0  0  0  0  0  0  0  0  0  0  0  0
  120.9380  152.7820  128.3270 H   0  0  0  0  0  0  0  0  0  0  0  0
  119.6610  151.8450  128.4370 H   0  0  0  0  0  0  0  0  0  0  0  0
  124.8790  146.5750  127.0730 H   0  0  0  0  0  0  0  0  0  0  0  0
  124.9180  146.7750  130.5790 H   0  0  0  0  0  0  0  0  0  0  0  0
  123.5980  148.3160  131.1770 H   0  0  0  0  0  0  0  0  0  0  0  0
  2  3  1  0  0  0  0
  3  4  1  0  0  0  0
  4  5  1  0  0  0  0
  5  6  2  0  0  0  0
  6  7  1  0  0  0  0
  7  8  1  0  0  0  0
  6  9  1  0  0  0  0
  9 10  1  0  0  0  0
 10 11  1  0  0  0  0
 11 12  2  0  0  0  0
 11 13  1  0  0  0  0
 13 14  1  0  0  0  0
 14 15  1  0  0  0  0
 15 16  2  0  0  0  0
 16 17  1  0  0  0  0
 16 18  1  0  0  0  0
 14 19  2  0  0  0  0
 18 19  1  0  0  0  0
  9 20  2  0  0  0  0
  1 21  1  0  0  0  0
  4 21  2  0  0  0  0
 20 21  1  0  0  0  0
  2 22  1  0  0  0  0
  2 23  1  0  0  0  0
  2 24  1  0  0  0  0
  5 25  1  0  0  0  0
  8 26  1  0  0  0  0
  8 27  1  0  0  0  0
  8 28  1  0  0  0  0
 15 29  1  0  0  0  0
 17 30  1  0  0  0  0
 17 31  1  0  0  0  0
 17 32  1  0  0  0  0
 20 33  1  0  0  0  0
 10 34  1  0  0  0  0
 13 35  1  0  0  0  0
M  END
$$$$
