8V8A
  PyMOL3.1          3D                             0

 35 36  0  0  0  0  0  0  0  0999 V2000
  141.0120  152.4440  125.0550 Cl  0  0  0  0  0  0  0  0  0  0  0  0
  139.1790  149.2360  127.2400 C   0  0  0  0  0  0  0  0  0  0  0  0
  139.8230  150.3400  126.6120 O   0  0  0  0  0  0  0  0  0  0  0  0
  140.3720  151.2940  127.4180 C   0  0  0  0  0  0  0  0  0  0  0  0
  140.3650  151.2440  128.8010 C   0  0  0  0  0  0  0  0  0  0  0  0
  140.9590  152.2560  129.5330 C   0  0  0  0  0  0  0  0  0  0  0  0
  141.0750  152.2630  130.8930 O   0  0  0  0  0  0  0  0  0  0  0  0
  140.0590  151.6120  131.6480 C   0  0  0  0  0  0  0  0  0  0  0  0
  141.5540  153.3420  128.8950 C   0  0  0  0  0  0  0  0  0  0  0  0
  142.1560  154.3060  129.7300 N   0  0  0  0  0  0  0  0  0  0  0  0
  142.7450  155.4800  129.3460 C   0  0  0  0  0  0  0  0  0  0  0  0
  142.7410  155.9130  128.1970 O   0  0  0  0  0  0  0  0  0  0  0  0
  143.3360  156.1860  130.3810 N   0  0  0  0  0  0  0  0  0  0  0  0
  144.1050  157.3410  130.3050 C   0  0  0  0  0  0  0  0  0  0  0  0
  144.4820  158.0480  129.1470 C   0  0  0  0  0  0  0  0  0  0  0  0
  145.2410  159.0510  129.5900 C   0  0  0  0  0  0  0  0  0  0  0  0
  145.9790  160.1570  128.9270 C   0  0  0  0  0  0  0  0  0  0  0  0
  145.3310  158.9980  130.9340 O   0  0  0  0  0  0  0  0  0  0  0  0
  144.5880  157.8860  131.3880 N   0  0  0  0  0  0  0  0  0  0  0  0
  141.5580  153.3940  127.5070 C   0  0  0  0  0  0  0  0  0  0  0  0
  140.9760  152.3740  126.7850 C   0  0  0  0  0  0  0  0  0  0  0  0
  138.8370  148.6390  126.5560 H   0  0  0  0  0  0  0  0  0  0  0  0
  139.8230  148.7690  127.7950 H   0  0  0  0  0  0  0  0  0  0  0  0
  138.4490  149.5660  127.7870 H   0  0  0  0  0  0  0  0  0  0  0  0
  139.9610  150.5300  129.2380 H   0  0  0  0  0  0  0  0  0  0  0  0
  140.2660  151.6930  132.5920 H   0  0  0  0  0  0  0  0  0  0  0  0
  139.2060  152.0330  131.4590 H   0  0  0  0  0  0  0  0  0  0  0  0
  140.0290  150.6760  131.3960 H   0  0  0  0  0  0  0  0  0  0  0  0
  144.2520  157.8570  128.2660 H   0  0  0  0  0  0  0  0  0  0  0  0
  146.4220  160.6920  129.6040 H   0  0  0  0  0  0  0  0  0  0  0  0
  146.6360  159.7800  128.3220 H   0  0  0  0  0  0  0  0  0  0  0  0
  145.3500  160.7050  128.4320 H   0  0  0  0  0  0  0  0  0  0  0  0
  141.9510  154.1130  127.0670 H   0  0  0  0  0  0  0  0  0  0  0  0
  142.1530  154.1380  130.5730 H   0  0  0  0  0  0  0  0  0  0  0  0
  143.2110  155.8690  131.1710 H   0  0  0  0  0  0  0  0  0  0  0  0
  2  3  1  0  0  0  0
  3  4  1  0  0  0  0
  4  5  1  0  0  0  0
  5  6  2  0  0  0  0
  6  7  1  0  0  0  0
  7  8  1  0  0  0  0
  6  9  1  0  0  0  0
  9 10  1  0  0  0  0
 10 11  1  0  0  0  0
 11 12  2  0  0  0  0
 11 13  1  0  0  0  0
 13 14  1  0  0  0  0
 14 15  1  0  0  0  0
 15 16  2  0  0  0  0
 16 17  1  0  0  0  0
 16 18  1  0  0  0  0
 14 19  2  0  0  0  0
 18 19  1  0  0  0  0
  9 20  2  0  0  0  0
  1 21  1  0  0  0  0
  4 21  2  0  0  0  0
 20 21  1  0  0  0  0
  2 22  1  0  0  0  0
  2 23  1  0  0  0  0
  2 24  1  0  0  0  0
  5 25  1  0  0  0  0
  8 26  1  0  0  0  0
  8 27  1  0  0  0  0
  8 28  1  0  0  0  0
 15 29  1  0  0  0  0
 17 30  1  0  0  0  0
 17 31  1  0  0  0  0
 17 32  1  0  0  0  0
 20 33  1  0  0  0  0
 10 34  1  0  0  0  0
 13 35  1  0  0  0  0
M  END
$$$$
