8W34
  PyMOL3.1          3D                             0

 60 66  0  0  0  0  0  0  0  0999 V2000
  162.4200  153.4800  116.7220 C   0  0  0  0  0  0  0  0  0  0  0  0
  155.4220  151.7730  127.8320 C   0  0  0  0  0  0  0  0  0  0  0  0
  154.9880  152.1010  126.5640 C   0  0  0  0  0  0  0  0  0  0  0  0
  156.5870  153.8400  127.9820 C   0  0  0  0  0  0  0  0  0  0  0  0
  158.1660  152.7310  121.3940 C   0  0  0  0  0  0  0  0  0  0  0  0
  163.2160  151.4990  119.0850 C   0  0  0  0  0  0  0  0  0  0  0  0
  163.7510  152.8970  118.7090 C   0  0  0  0  0  0  0  0  0  0  0  0
  154.9350  153.6450  124.7430 C   0  0  0  0  0  0  0  0  0  0  0  0
  159.5910  152.0430  119.5510 C   0  0  0  0  0  0  0  0  0  0  0  0
  156.6860  153.1920  123.1450 C   0  0  0  0  0  0  0  0  0  0  0  0
  160.9700  154.4670  119.8640 C   0  0  0  0  0  0  0  0  0  0  0  0
  156.2170  152.6420  128.5300 C   0  0  0  0  0  0  0  0  0  0  0  0
  156.1520  154.1560  126.7190 C   0  0  0  0  0  0  0  0  0  0  0  0
  155.3550  153.3020  126.0070 C   0  0  0  0  0  0  0  0  0  0  0  0
  159.4940  155.0600  121.6830 C   0  0  0  0  0  0  0  0  0  0  0  0
  157.7570  153.6030  122.3740 C   0  0  0  0  0  0  0  0  0  0  0  0
  159.8990  154.1770  120.6910 C   0  0  0  0  0  0  0  0  0  0  0  0
  158.4390  154.7950  122.5240 C   0  0  0  0  0  0  0  0  0  0  0  0
  156.0630  154.0680  123.9170 N   0  0  0  0  0  0  0  0  0  0  0  0
  156.3570  152.0200  123.0900 O   0  0  0  0  0  0  0  0  0  0  0  0
  161.4410  155.5970  119.8700 O   0  0  0  0  0  0  0  0  0  0  0  0
  158.1400  155.6190  123.3690 O   0  0  0  0  0  0  0  0  0  0  0  0
  160.1310  156.2460  121.8700 O   0  0  0  0  0  0  0  0  0  0  0  0
  161.9600  151.5170  119.8390 O   0  0  0  0  0  0  0  0  0  0  0  0
  162.6480  153.7890  118.1970 C   0  0  0  0  0  0  0  0  0  0  0  0
  160.9990  152.1680  119.0320 C   0  0  0  0  0  0  0  0  0  0  0  0
  161.5050  153.5270  119.0710 N   0  0  0  0  0  0  0  0  0  0  0  0
  159.2340  153.0330  120.5650 N   0  0  0  0  0  0  0  0  0  0  0  0
  156.6150  152.3510  129.6790 F   0  0  0  0  0  0  0  0  0  0  0  0
  156.4830  155.2360  126.2170 F   0  0  0  0  0  0  0  0  0  0  0  0
  135.6520  144.5910  116.7530 C   0  0  0  0  0  0  0  0  0  0  0  0
  142.6650  146.3330  127.8320 C   0  0  0  0  0  0  0  0  0  0  0  0
  143.1010  146.0000  126.5670 C   0  0  0  0  0  0  0  0  0  0  0  0
  141.5050  144.2650  127.9930 C   0  0  0  0  0  0  0  0  0  0  0  0
  139.9190  145.3520  121.4090 C   0  0  0  0  0  0  0  0  0  0  0  0
  134.8660  146.5990  119.1020 C   0  0  0  0  0  0  0  0  0  0  0  0
  134.3240  145.2020  118.7340 C   0  0  0  0  0  0  0  0  0  0  0  0
  143.1580  144.4440  124.7540 C   0  0  0  0  0  0  0  0  0  0  0  0
  138.4880  146.0390  119.5710 C   0  0  0  0  0  0  0  0  0  0  0  0
  141.4060  144.8950  123.1550 C   0  0  0  0  0  0  0  0  0  0  0  0
  137.1050  143.6180  119.8930 C   0  0  0  0  0  0  0  0  0  0  0  0
  141.8710  145.4660  128.5350 C   0  0  0  0  0  0  0  0  0  0  0  0
  141.9420  143.9420  126.7320 C   0  0  0  0  0  0  0  0  0  0  0  0
  142.7380  144.7940  126.0160 C   0  0  0  0  0  0  0  0  0  0  0  0
  138.5890  143.0260  121.7090 C   0  0  0  0  0  0  0  0  0  0  0  0
  140.3310  144.4830  122.3890 C   0  0  0  0  0  0  0  0  0  0  0  0
  138.1810  143.9070  120.7160 C   0  0  0  0  0  0  0  0  0  0  0  0
  139.6480  143.2920  122.5440 C   0  0  0  0  0  0  0  0  0  0  0  0
  142.0270  144.0220  123.9320 N   0  0  0  0  0  0  0  0  0  0  0  0
  141.7400  146.0650  123.0940 O   0  0  0  0  0  0  0  0  0  0  0  0
  136.6300  142.4900  119.9030 O   0  0  0  0  0  0  0  0  0  0  0  0
  139.9500  142.4700  123.3910 O   0  0  0  0  0  0  0  0  0  0  0  0
  137.9530  141.8400  121.9020 O   0  0  0  0  0  0  0  0  0  0  0  0
  136.1220  146.5760  119.8570 O   0  0  0  0  0  0  0  0  0  0  0  0
  135.4220  144.2980  118.2310 C   0  0  0  0  0  0  0  0  0  0  0  0
  137.0790  145.9160  119.0540 C   0  0  0  0  0  0  0  0  0  0  0  0
  136.5700  144.5580  119.1010 N   0  0  0  0  0  0  0  0  0  0  0  0
  138.8470  145.0500  120.5860 N   0  0  0  0  0  0  0  0  0  0  0  0
  141.4710  145.7620  129.6820 F   0  0  0  0  0  0  0  0  0  0  0  0
  141.6130  142.8580  126.2370 F   0  0  0  0  0  0  0  0  0  0  0  0
  2  3  2  0  0  0  0
  6  7  1  0  0  0  0
  2 12  1  0  0  0  0
  4 12  2  0  0  0  0
  4 13  1  0  0  0  0
  3 14  1  0  0  0  0
  8 14  1  0  0  0  0
 13 14  2  0  0  0  0
  5 16  2  0  0  0  0
 10 16  1  0  0  0  0
 11 17  1  0  0  0  0
 15 17  2  0  0  0  0
 15 18  1  0  0  0  0
 16 18  1  0  0  0  0
  8 19  1  0  0  0  0
 10 19  1  0  0  0  0
 10 20  2  0  0  0  0
 11 21  2  0  0  0  0
 18 22  2  0  0  0  0
 15 23  1  0  0  0  0
  6 24  1  0  0  0  0
  1 25  1  0  0  0  0
  7 25  1  0  0  0  0
  9 26  1  0  0  0  0
 24 26  1  0  0  0  0
 11 27  1  0  0  0  0
 25 27  1  0  0  0  0
 26 27  1  0  0  0  0
  5 28  1  0  0  0  0
  9 28  1  0  0  0  0
 17 28  1  0  0  0  0
 12 29  1  0  0  0  0
 13 30  1  0  0  0  0
 32 33  2  0  0  0  0
 36 37  1  0  0  0  0
 32 42  1  0  0  0  0
 34 42  2  0  0  0  0
 34 43  1  0  0  0  0
 33 44  1  0  0  0  0
 38 44  1  0  0  0  0
 43 44  2  0  0  0  0
 35 46  2  0  0  0  0
 40 46  1  0  0  0  0
 41 47  1  0  0  0  0
 45 47  2  0  0  0  0
 45 48  1  0  0  0  0
 46 48  1  0  0  0  0
 38 49  1  0  0  0  0
 40 49  1  0  0  0  0
 40 50  2  0  0  0  0
 41 51  2  0  0  0  0
 48 52  2  0  0  0  0
 45 53  1  0  0  0  0
 36 54  1  0  0  0  0
 31 55  1  0  0  0  0
 37 55  1  0  0  0  0
 39 56  1  0  0  0  0
 54 56  1  0  0  0  0
 41 57  1  0  0  0  0
 55 57  1  0  0  0  0
 56 57  1  0  0  0  0
 35 58  1  0  0  0  0
 39 58  1  0  0  0  0
 47 58  1  0  0  0  0
 42 59  1  0  0  0  0
 43 60  1  0  0  0  0
M  END
$$$$
