7KNW
  PyMOL3.1          3D                             0

 22 24  0  0  0  0  0  0  0  0999 V2000
  -54.0060   54.6690  -48.3020 N   0  0  0  0  0  0  0  0  0  0  0  0
  -54.2590   51.9690  -47.2430 C   0  0  0  0  0  0  0  0  0  0  0  0
  -52.2000   50.8420  -47.0550 O   0  0  0  0  0  0  0  0  0  0  0  0
  -58.0610   50.6270  -47.1520 Cl  0  0  0  0  0  0  0  0  0  0  0  0
  -55.6450   51.9300  -47.2700 C   0  0  0  0  0  0  0  0  0  0  0  0
  -56.3290   57.5240  -48.1760 N   0  0  0  0  0  0  0  0  0  0  0  0
  -52.1250   53.0630  -48.0010 O   0  0  0  0  0  0  0  0  0  0  0  0
  -53.5550   50.7920  -47.0770 C   0  0  0  0  0  0  0  0  0  0  0  0
  -55.2630   56.7850  -49.9250 N   0  0  0  0  0  0  0  0  0  0  0  0
  -53.0520   54.0100  -46.1020 O   0  0  0  0  0  0  0  0  0  0  0  0
  -56.3380   50.7160  -47.1310 C   0  0  0  0  0  0  0  0  0  0  0  0
  -56.6860   58.2700  -49.1130 N   0  0  0  0  0  0  0  0  0  0  0  0
  -54.2380   49.5790  -46.9490 C   0  0  0  0  0  0  0  0  0  0  0  0
  -55.6290   49.5330  -46.9660 C   0  0  0  0  0  0  0  0  0  0  0  0
  -51.3530   49.9220  -46.3470 C   0  0  0  0  0  0  0  0  0  0  0  0
  -55.4660   56.5930  -48.6130 C   0  0  0  0  0  0  0  0  0  0  0  0
  -54.9120   55.6270  -47.7680 C   0  0  0  0  0  0  0  0  0  0  0  0
  -56.7500   57.6250  -46.9140 C   0  0  0  0  0  0  0  0  0  0  0  0
  -55.3490   55.6930  -46.4320 C   0  0  0  0  0  0  0  0  0  0  0  0
  -56.2570   56.6870  -46.0250 C   0  0  0  0  0  0  0  0  0  0  0  0
  -56.0460   57.8490  -50.2270 C   0  0  0  0  0  0  0  0  0  0  0  0
  -53.3590   53.4730  -47.3990 S   0  0  0  0  0  0  0  0  0  0  0  0
  2  5  2  0  0  0  0
  2  8  1  0  0  0  0
  3  8  1  0  0  0  0
  4 11  1  0  0  0  0
  5 11  1  0  0  0  0
  6 12  1  0  0  0  0
  8 13  2  0  0  0  0
 11 14  2  0  0  0  0
 13 14  1  0  0  0  0
  3 15  1  0  0  0  0
  6 16  1  0  0  0  0
  9 16  2  0  0  0  0
  1 17  1  0  0  0  0
 16 17  1  0  0  0  0
  6 18  1  0  0  0  0
 17 19  2  0  0  0  0
 18 20  2  0  0  0  0
 19 20  1  0  0  0  0
  9 21  1  0  0  0  0
 12 21  2  0  0  0  0
  1 22  1  0  0  0  0
  2 22  1  0  0  0  0
  7 22  2  0  0  0  0
 10 22  2  0  0  0  0
M  END
$$$$
