8D1T
  PyMOL3.1          3D                             0

 30 34  0  0  0  0  0  0  0  0999 V2000
   10.2860  -11.9020   -2.2260 Cl  0  0  0  0  0  0  0  0  0  0  0  0
   10.9990  -10.4640   -2.8520 C   0  0  0  0  0  0  0  0  0  0  0  0
   12.0740  -10.0070   -2.1540 C   0  0  0  0  0  0  0  0  0  0  0  0
   12.7070   -8.8910   -2.6060 C   0  0  0  0  0  0  0  0  0  0  0  0
   13.7770   -8.3680   -1.9080 C   0  0  0  0  0  0  0  0  0  0  0  0
   13.9760   -7.0230   -1.9120 C   0  0  0  0  0  0  0  0  0  0  0  0
   15.0000   -6.4400   -1.2170 C   0  0  0  0  0  0  0  0  0  0  0  0
   15.8460   -7.2150   -0.4810 C   0  0  0  0  0  0  0  0  0  0  0  0
   15.6360   -8.5410   -0.4870 C   0  0  0  0  0  0  0  0  0  0  0  0
   16.5180   -9.4440    0.2840 C   0  0  0  0  0  0  0  0  0  0  0  0
   16.9890   -9.4990    1.7220 C   0  0  0  0  0  0  0  0  0  0  0  0
   15.8390  -10.3790    1.2660 C   0  0  0  0  0  0  0  0  0  0  0  0
   17.4610  -10.1270   -0.6470 C   0  0  0  0  0  0  0  0  0  0  0  0
   18.1860  -10.6490   -1.3500 N   0  0  0  0  0  0  0  0  0  0  0  0
   14.6120   -9.1320   -1.1560 C   0  0  0  0  0  0  0  0  0  0  0  0
   12.2530   -8.2500   -3.7220 C   0  0  0  0  0  0  0  0  0  0  0  0
   11.1870   -8.7270   -4.4210 C   0  0  0  0  0  0  0  0  0  0  0  0
   10.5630   -9.8640   -4.0140 C   0  0  0  0  0  0  0  0  0  0  0  0
    9.3370  -10.3080   -4.8030 C   0  0  0  0  0  0  0  0  0  0  0  0
    9.1610  -10.4230   -6.2570 N   0  0  0  0  0  0  0  0  0  0  0  0
    7.7100  -10.8210   -6.7830 C   0  0  0  0  0  0  0  0  0  0  0  0
    7.5990  -11.3540   -8.0300 C   0  0  0  0  0  0  0  0  0  0  0  0
    6.6760  -10.5760   -8.7430 C   0  0  0  0  0  0  0  0  0  0  0  0
    7.2660   -9.4660   -8.9790 C   0  0  0  0  0  0  0  0  0  0  0  0
    7.4590   -8.7850   -7.7530 C   0  0  0  0  0  0  0  0  0  0  0  0
    7.0900   -9.5800   -6.7790 C   0  0  0  0  0  0  0  0  0  0  0  0
    5.7370   -9.8750   -7.5780 N   0  0  0  0  0  0  0  0  0  0  0  0
    4.7710   -8.7620   -7.6000 C   0  0  0  0  0  0  0  0  0  0  0  0
    4.6950   -7.8380   -6.6680 N   0  0  0  0  0  0  0  0  0  0  0  0
    8.4500  -10.4940   -4.1070 O   0  0  0  0  0  0  0  0  0  0  0  0
  1  2  1  0  0  0  0
  2  3  2  0  0  0  0
  3  4  1  0  0  0  0
  4  5  1  0  0  0  0
  5  6  2  0  0  0  0
  6  7  1  0  0  0  0
  7  8  2  0  0  0  0
  8  9  1  0  0  0  0
  9 10  1  0  0  0  0
 10 11  1  0  0  0  0
 10 12  1  0  0  0  0
 11 12  1  0  0  0  0
 10 13  1  0  0  0  0
 13 14  3  0  0  0  0
  5 15  1  0  0  0  0
  9 15  2  0  0  0  0
  4 16  2  0  0  0  0
 16 17  1  0  0  0  0
  2 18  1  0  0  0  0
 17 18  2  0  0  0  0
 18 19  1  0  0  0  0
 19 20  1  0  0  0  0
 20 21  1  0  0  0  0
 21 22  1  0  0  0  0
 22 23  1  0  0  0  0
 23 24  1  0  0  0  0
 24 25  1  0  0  0  0
 21 26  1  0  0  0  0
 25 26  1  0  0  0  0
 23 27  1  0  0  0  0
 26 27  1  0  0  0  0
 27 28  2  0  0  0  0
 28 29  1  0  0  0  0
 19 30  2  0  0  0  0
M  END
$$$$
