8HEZ
  PyMOL3.1          3D                             0

 28 30  0  0  0  0  0  0  0  0999 V2000
   70.6060   65.7290   78.1100 Cl  0  0  0  0  0  0  0  0  0  0  0  0
   68.1670   66.9770   74.5270 C   0  0  0  0  0  0  0  0  0  0  0  0
   65.8080   66.5460   82.2530 O   0  0  0  0  0  0  0  0  0  0  0  0
   69.3910   67.5720   74.7850 C   0  0  0  0  0  0  0  0  0  0  0  0
   66.4720   68.4400   73.7550 O   0  0  0  0  0  0  0  0  0  0  0  0
   70.1430   67.1920   75.8870 C   0  0  0  0  0  0  0  0  0  0  0  0
   65.0250   65.7590   70.9850 O   0  0  0  0  0  0  0  0  0  0  0  0
   69.6620   66.2060   76.7310 C   0  0  0  0  0  0  0  0  0  0  0  0
   64.3620   68.6070   70.7530 O   0  0  0  0  0  0  0  0  0  0  0  0
   68.4550   65.5810   76.5040 C   0  0  0  0  0  0  0  0  0  0  0  0
   67.3900   65.1780   72.2920 O   0  0  0  0  0  0  0  0  0  0  0  0
   67.7150   65.9910   75.4000 C   0  0  0  0  0  0  0  0  0  0  0  0
   65.8460   71.0620   73.9330 O   0  0  0  0  0  0  0  0  0  0  0  0
   66.3120   66.0130   78.6210 C   0  0  0  0  0  0  0  0  0  0  0  0
   67.3360   65.0810   78.6730 C   0  0  0  0  0  0  0  0  0  0  0  0
   67.9230   64.5100   77.4100 C   0  0  0  0  0  0  0  0  0  0  0  0
   65.7590   66.5340   79.7740 C   0  0  0  0  0  0  0  0  0  0  0  0
   66.2390   66.1220   81.0200 C   0  0  0  0  0  0  0  0  0  0  0  0
   67.2580   65.1860   81.0850 C   0  0  0  0  0  0  0  0  0  0  0  0
   67.7980   64.6800   79.9180 C   0  0  0  0  0  0  0  0  0  0  0  0
   65.1570   67.8090   82.3880 C   0  0  0  0  0  0  0  0  0  0  0  0
   63.6790   67.5730   82.1850 C   0  0  0  0  0  0  0  0  0  0  0  0
   67.3650   67.3980   73.3290 C   0  0  0  0  0  0  0  0  0  0  0  0
   65.8220   69.0710   72.6310 C   0  0  0  0  0  0  0  0  0  0  0  0
   64.9620   68.0220   71.8890 C   0  0  0  0  0  0  0  0  0  0  0  0
   65.8180   66.8290   71.4780 C   0  0  0  0  0  0  0  0  0  0  0  0
   66.5560   66.2680   72.6780 C   0  0  0  0  0  0  0  0  0  0  0  0
   65.0320   70.1940   73.2000 C   0  0  0  0  0  0  0  0  0  0  0  0
  2  4  2  0  0  0  0
  4  6  1  0  0  0  0
  1  8  1  0  0  0  0
  6  8  2  0  0  0  0
  8 10  1  0  0  0  0
  2 12  1  0  0  0  0
 10 12  2  0  0  0  0
 14 15  2  0  0  0  0
 10 16  1  0  0  0  0
 15 16  1  0  0  0  0
 14 17  1  0  0  0  0
  3 18  1  0  0  0  0
 17 18  2  0  0  0  0
 18 19  1  0  0  0  0
 15 20  1  0  0  0  0
 19 20  2  0  0  0  0
  3 21  1  0  0  0  0
 21 22  1  0  0  0  0
  2 23  1  0  0  0  0
  5 23  1  0  0  0  0
  5 24  1  0  0  0  0
  9 25  1  0  0  0  0
 24 25  1  0  0  0  0
  7 26  1  0  0  0  0
 25 26  1  0  0  0  0
 11 27  1  0  0  0  0
 23 27  1  0  0  0  0
 26 27  1  0  0  0  0
 13 28  1  0  0  0  0
 24 28  1  0  0  0  0
M  END
$$$$
