8RQL
  PyMOL3.1          3D                             0

 40 42  0  0  0  0  0  0  0  0999 V2000
  159.8600  158.6380  187.7990 N   0  0  0  0  0  0  0  0  0  0  0  0
  160.5880  161.8100  191.5740 C   0  0  0  0  0  0  0  0  0  0  0  0
  160.8310  160.8530  187.3910 C   0  0  0  0  0  0  0  0  0  0  0  0
  161.2650  162.0830  187.8510 C   0  0  0  0  0  0  0  0  0  0  0  0
  161.1850  162.3880  189.1980 C   0  0  0  0  0  0  0  0  0  0  0  0
  160.6710  161.4630  190.0890 C   0  0  0  0  0  0  0  0  0  0  0  0
  160.2340  160.2330  189.6300 C   0  0  0  0  0  0  0  0  0  0  0  0
  160.3140  159.9290  188.2810 C   0  0  0  0  0  0  0  0  0  0  0  0
  157.4620  159.0840  187.4630 C   0  0  0  0  0  0  0  0  0  0  0  0
  156.5670  159.1270  189.7060 O   0  0  0  0  0  0  0  0  0  0  0  0
  156.3190  159.0060  186.6860 C   0  0  0  0  0  0  0  0  0  0  0  0
  157.1190  161.0440  188.8320 O   0  0  0  0  0  0  0  0  0  0  0  0
  156.3720  158.4070  185.4400 C   0  0  0  0  0  0  0  0  0  0  0  0
  157.5660  157.8870  184.9730 C   0  0  0  0  0  0  0  0  0  0  0  0
  158.7080  157.9650  185.7480 C   0  0  0  0  0  0  0  0  0  0  0  0
  158.6560  158.5620  186.9940 C   0  0  0  0  0  0  0  0  0  0  0  0
  157.0240  159.7930  188.7420 C   0  0  0  0  0  0  0  0  0  0  0  0
  161.8050  161.6210  192.1600 F   0  0  0  0  0  0  0  0  0  0  0  0
  160.2030  163.1100  191.7100 F   0  0  0  0  0  0  0  0  0  0  0  0
  159.6640  161.0130  192.1810 F   0  0  0  0  0  0  0  0  0  0  0  0
  143.6300  142.0190  170.5970 N   0  0  0  0  0  0  0  0  0  0  0  0
  140.9950  137.9590  169.7000 C   0  0  0  0  0  0  0  0  0  0  0  0
  144.6160  139.8310  170.8980 C   0  0  0  0  0  0  0  0  0  0  0  0
  144.5400  138.4540  170.8550 C   0  0  0  0  0  0  0  0  0  0  0  0
  143.3750  137.8220  170.4730 C   0  0  0  0  0  0  0  0  0  0  0  0
  142.2770  138.5910  170.1280 C   0  0  0  0  0  0  0  0  0  0  0  0
  142.3450  139.9770  170.1580 C   0  0  0  0  0  0  0  0  0  0  0  0
  143.5160  140.6070  170.5580 C   0  0  0  0  0  0  0  0  0  0  0  0
  142.8630  144.1410  171.5490 C   0  0  0  0  0  0  0  0  0  0  0  0
  144.6830  145.4300  172.2870 O   0  0  0  0  0  0  0  0  0  0  0  0
  141.8790  145.1210  171.6350 C   0  0  0  0  0  0  0  0  0  0  0  0
  144.5370  143.3660  172.9980 O   0  0  0  0  0  0  0  0  0  0  0  0
  140.7040  145.0330  170.9270 C   0  0  0  0  0  0  0  0  0  0  0  0
  140.4870  143.9530  170.1020 C   0  0  0  0  0  0  0  0  0  0  0  0
  141.4400  142.9680  169.9840 C   0  0  0  0  0  0  0  0  0  0  0  0
  142.6370  143.0170  170.7160 C   0  0  0  0  0  0  0  0  0  0  0  0
  144.1200  144.3280  172.3420 C   0  0  0  0  0  0  0  0  0  0  0  0
  140.0940  137.9340  170.6660 F   0  0  0  0  0  0  0  0  0  0  0  0
  140.4220  138.5920  168.6840 F   0  0  0  0  0  0  0  0  0  0  0  0
  141.1300  136.7020  169.3100 F   0  0  0  0  0  0  0  0  0  0  0  0
  3  4  2  0  0  0  0
  4  5  1  0  0  0  0
  2  6  1  0  0  0  0
  5  6  2  0  0  0  0
  6  7  1  0  0  0  0
  1  8  1  0  0  0  0
  3  8  1  0  0  0  0
  7  8  2  0  0  0  0
  9 11  2  0  0  0  0
 11 13  1  0  0  0  0
 13 14  2  0  0  0  0
 14 15  1  0  0  0  0
  1 16  1  0  0  0  0
  9 16  1  0  0  0  0
 15 16  2  0  0  0  0
  9 17  1  0  0  0  0
 10 17  2  0  0  0  0
 12 17  1  0  0  0  0
  2 18  1  0  0  0  0
  2 19  1  0  0  0  0
  2 20  1  0  0  0  0
 23 24  2  0  0  0  0
 24 25  1  0  0  0  0
 22 26  1  0  0  0  0
 25 26  2  0  0  0  0
 26 27  1  0  0  0  0
 21 28  1  0  0  0  0
 23 28  1  0  0  0  0
 27 28  2  0  0  0  0
 29 31  2  0  0  0  0
 31 33  1  0  0  0  0
 33 34  2  0  0  0  0
 34 35  1  0  0  0  0
 21 36  1  0  0  0  0
 29 36  1  0  0  0  0
 35 36  2  0  0  0  0
 29 37  1  0  0  0  0
 30 37  2  0  0  0  0
 32 37  1  0  0  0  0
 22 38  1  0  0  0  0
 22 39  1  0  0  0  0
 22 40  1  0  0  0  0
M  END
$$$$
