7XUJ
  PyMOL3.1          3D                             0

 22 24  0  0  0  0  0  0  0  0999 V2000
   89.3700  143.4570  112.7060 O   0  0  0  0  0  0  0  0  0  0  0  0
   89.6610  144.8030  114.3580 O   0  0  0  0  0  0  0  0  0  0  0  0
   92.4890  139.1250  116.6340 N   0  0  0  0  0  0  0  0  0  0  0  0
   93.2480  142.4700  113.3230 N   0  0  0  0  0  0  0  0  0  0  0  0
   92.2260  139.7330  117.8220 C   0  0  0  0  0  0  0  0  0  0  0  0
   91.4680  140.8690  117.5650 C   0  0  0  0  0  0  0  0  0  0  0  0
   91.2830  140.9530  116.2310 C   0  0  0  0  0  0  0  0  0  0  0  0
   91.9080  139.8650  115.6470 C   0  0  0  0  0  0  0  0  0  0  0  0
   93.2210  137.9010  116.3700 C   0  0  0  0  0  0  0  0  0  0  0  0
   92.6120  139.3860  119.2870 C   0  0  0  0  0  0  0  0  0  0  0  0
   90.9960  141.8060  118.7150 C   0  0  0  0  0  0  0  0  0  0  0  0
   90.4800  142.0220  115.4820 C   0  0  0  0  0  0  0  0  0  0  0  0
   92.1700  140.2680  120.4140 C   0  0  0  0  0  0  0  0  0  0  0  0
   91.3660  141.4750  120.1280 C   0  0  0  0  0  0  0  0  0  0  0  0
   92.9190  136.6400  117.1690 C   0  0  0  0  0  0  0  0  0  0  0  0
   94.2490  137.8580  115.2520 C   0  0  0  0  0  0  0  0  0  0  0  0
   93.6590  135.3360  116.8740 C   0  0  0  0  0  0  0  0  0  0  0  0
   94.9960  136.5680  114.9410 C   0  0  0  0  0  0  0  0  0  0  0  0
   90.8450  142.7110  114.4140 C   0  0  0  0  0  0  0  0  0  0  0  0
   94.6970  135.3040  115.7470 C   0  0  0  0  0  0  0  0  0  0  0  0
   89.8950  143.7160  113.7990 C   0  0  0  0  0  0  0  0  0  0  0  0
   92.2230  142.5740  113.7860 C   0  0  0  0  0  0  0  0  0  0  0  0
  3  5  1  0  0  0  0
  5  6  2  0  0  0  0
  6  7  1  0  0  0  0
  3  8  1  0  0  0  0
  7  8  2  0  0  0  0
  3  9  1  0  0  0  0
  5 10  1  0  0  0  0
  6 11  1  0  0  0  0
  7 12  1  0  0  0  0
 10 13  2  0  0  0  0
 11 14  2  0  0  0  0
 13 14  1  0  0  0  0
  9 15  2  0  0  0  0
  9 16  1  0  0  0  0
 15 17  1  0  0  0  0
 16 18  2  0  0  0  0
 12 19  2  0  0  0  0
 17 20  2  0  0  0  0
 18 20  1  0  0  0  0
  1 21  2  0  0  0  0
  2 21  1  0  0  0  0
 19 21  1  0  0  0  0
  4 22  3  0  0  0  0
 19 22  1  0  0  0  0
M  END
$$$$
