7TVB
  PyMOL3.1          3D                             0

 52 56  0  0  0  0  0  0  0  0999 V2000
   21.2730   62.5990   16.1870 N   0  0  0  0  0  0  0  0  0  0  0  0
   23.9900   54.9450   16.1200 C   0  0  0  0  0  0  0  0  0  0  0  0
   24.6900   52.5560   15.1600 O   0  0  0  0  0  0  0  0  0  0  0  0
   25.3570   53.9300   15.3280 P   0  0  0  0  0  0  0  0  0  0  0  0
   24.3130   56.4590   16.1080 C   0  0  0  0  0  0  0  0  0  0  0  0
   20.5380   64.9170   18.7180 N   0  0  0  0  0  0  0  0  0  0  0  0
   26.3560   53.8330   16.4780 O   0  0  0  0  0  0  0  0  0  0  0  0
   22.5670   60.1870   24.3160 S   0  0  0  0  0  0  0  0  0  0  0  0
   23.2620   57.3640   15.9860 C   0  0  0  0  0  0  0  0  0  0  0  0
   18.0800   64.2420   21.3210 N   0  0  0  0  0  0  0  0  0  0  0  0
   25.9990   54.4100   14.0660 O   0  0  0  0  0  0  0  0  0  0  0  0
   23.4610   58.7350   16.1540 C   0  0  0  0  0  0  0  0  0  0  0  0
   21.6570   61.7170   26.1610 N   0  0  0  0  0  0  0  0  0  0  0  0
   13.9930   65.1630   22.0540 O   0  0  0  0  0  0  0  0  0  0  0  0
   24.7620   59.1890   16.4470 C   0  0  0  0  0  0  0  0  0  0  0  0
   14.4710   66.1290   24.0260 N   0  0  0  0  0  0  0  0  0  0  0  0
   17.9050   65.4640   19.4440 O   0  0  0  0  0  0  0  0  0  0  0  0
   23.0950   61.0390   16.4170 C   0  0  0  0  0  0  0  0  0  0  0  0
   19.7220   62.8540   18.4610 O   0  0  0  0  0  0  0  0  0  0  0  0
   22.5190   62.3820   16.6370 C   0  0  0  0  0  0  0  0  0  0  0  0
   23.1680   63.2310   17.2440 O   0  0  0  0  0  0  0  0  0  0  0  0
   20.5870   63.8490   16.4760 C   0  0  0  0  0  0  0  0  0  0  0  0
   19.3730   64.1110   15.5330 C   0  0  0  0  0  0  0  0  0  0  0  0
   19.7790   63.9140   14.0670 C   0  0  0  0  0  0  0  0  0  0  0  0
   18.2160   63.1580   15.8560 C   0  0  0  0  0  0  0  0  0  0  0  0
   18.8860   65.5500   15.7230 C   0  0  0  0  0  0  0  0  0  0  0  0
   20.2250   63.8460   17.9680 C   0  0  0  0  0  0  0  0  0  0  0  0
   21.3300   66.0930   18.3280 C   0  0  0  0  0  0  0  0  0  0  0  0
   21.8440   66.6070   19.6530 C   0  0  0  0  0  0  0  0  0  0  0  0
   20.7120   66.3060   20.6170 C   0  0  0  0  0  0  0  0  0  0  0  0
   20.1380   64.9680   20.1270 C   0  0  0  0  0  0  0  0  0  0  0  0
   18.6150   64.9310   20.2740 C   0  0  0  0  0  0  0  0  0  0  0  0
   18.8920   63.5160   22.2510 C   0  0  0  0  0  0  0  0  0  0  0  0
   19.4740   64.1730   23.3320 C   0  0  0  0  0  0  0  0  0  0  0  0
   20.3170   63.4930   24.1890 C   0  0  0  0  0  0  0  0  0  0  0  0
   20.5860   62.1400   23.9970 C   0  0  0  0  0  0  0  0  0  0  0  0
   21.5120   61.4300   24.8930 C   0  0  0  0  0  0  0  0  0  0  0  0
   22.6490   60.9410   26.7120 C   0  0  0  0  0  0  0  0  0  0  0  0
   23.2470   60.0690   25.8820 C   0  0  0  0  0  0  0  0  0  0  0  0
   19.9870   61.4800   22.9230 C   0  0  0  0  0  0  0  0  0  0  0  0
   19.1510   62.1600   22.0550 C   0  0  0  0  0  0  0  0  0  0  0  0
   16.6390   64.3250   21.6020 C   0  0  0  0  0  0  0  0  0  0  0  0
   16.3050   65.4930   22.5190 C   0  0  0  0  0  0  0  0  0  0  0  0
   14.8290   65.5700   22.8520 C   0  0  0  0  0  0  0  0  0  0  0  0
   13.0670   66.4220   24.3160 C   0  0  0  0  0  0  0  0  0  0  0  0
   15.4050   66.5020   25.0930 C   0  0  0  0  0  0  0  0  0  0  0  0
   22.5400   59.8450   16.1290 C   0  0  0  0  0  0  0  0  0  0  0  0
   25.8310   58.2970   16.5300 C   0  0  0  0  0  0  0  0  0  0  0  0
   25.5960   56.9440   16.3510 C   0  0  0  0  0  0  0  0  0  0  0  0
   22.7600   54.7080   15.5450 F   0  0  0  0  0  0  0  0  0  0  0  0
   23.7920   54.5540   17.4190 F   0  0  0  0  0  0  0  0  0  0  0  0
   24.8130   60.9060   16.7080 S   0  0  0  0  0  0  0  0  0  0  0  0
  2  4  1  0  0  0  0
  3  4  1  0  0  0  0
  2  5  1  0  0  0  0
  4  7  1  0  0  0  0
  5  9  2  0  0  0  0
  4 11  2  0  0  0  0
  9 12  1  0  0  0  0
 12 15  2  0  0  0  0
  1 20  1  0  0  0  0
 18 20  1  0  0  0  0
 20 21  2  0  0  0  0
  1 22  1  0  0  0  0
 22 23  1  0  0  0  0
 23 24  1  0  0  0  0
 23 25  1  0  0  0  0
 23 26  1  0  0  0  0
  6 27  1  0  0  0  0
 19 27  2  0  0  0  0
 22 27  1  0  0  0  0
  6 28  1  0  0  0  0
 28 29  1  0  0  0  0
 29 30  1  0  0  0  0
  6 31  1  0  0  0  0
 30 31  1  0  0  0  0
 10 32  1  0  0  0  0
 17 32  2  0  0  0  0
 31 32  1  0  0  0  0
 10 33  1  0  0  0  0
 33 34  1  0  0  0  0
 34 35  2  0  0  0  0
 35 36  1  0  0  0  0
  8 37  1  0  0  0  0
 13 37  2  0  0  0  0
 36 37  1  0  0  0  0
 13 38  1  0  0  0  0
  8 39  1  0  0  0  0
 38 39  2  0  0  0  0
 36 40  2  0  0  0  0
 33 41  2  0  0  0  0
 40 41  1  0  0  0  0
 10 42  1  0  0  0  0
 42 43  1  0  0  0  0
 14 44  2  0  0  0  0
 16 44  1  0  0  0  0
 43 44  1  0  0  0  0
 16 45  1  0  0  0  0
 16 46  1  0  0  0  0
 12 47  1  0  0  0  0
 18 47  2  0  0  0  0
 15 48  1  0  0  0  0
  5 49  1  0  0  0  0
 48 49  2  0  0  0  0
  2 50  1  0  0  0  0
  2 51  1  0  0  0  0
 15 52  1  0  0  0  0
 18 52  1  0  0  0  0
M  END
$$$$
