8FTQ
  PyMOL3.1          3D                             0

 29 32  0  0  0  0  0  0  0  0999 V2000
   21.6240  -11.6620   34.5410 C   0  0  0  0  0  0  0  0  0  0  0  0
   20.8480  -11.0750   38.5070 N   0  0  0  0  0  0  0  0  0  0  0  0
   21.8290   -9.7580   40.0360 O   0  0  0  0  0  0  0  0  0  0  0  0
   22.3720  -10.7480   35.4040 C   0  0  0  0  0  0  0  0  0  0  0  0
   25.3700   -7.0400   33.6220 N   0  0  0  0  0  0  0  0  0  0  0  0
   23.7450   -5.3740   33.5100 O   0  0  0  0  0  0  0  0  0  0  0  0
   22.0470  -10.6320   36.6250 C   0  0  0  0  0  0  0  0  0  0  0  0
   25.1620   -5.2580   27.4660 O   0  0  0  0  0  0  0  0  0  0  0  0
   21.0500  -11.3110   37.1720 C   0  0  0  0  0  0  0  0  0  0  0  0
   20.3020  -12.1600   36.4090 C   0  0  0  0  0  0  0  0  0  0  0  0
   20.6000  -12.3740   35.1390 C   0  0  0  0  0  0  0  0  0  0  0  0
   22.6340   -9.8850   37.7010 C   0  0  0  0  0  0  0  0  0  0  0  0
   21.7350  -10.1860   38.8810 C   0  0  0  0  0  0  0  0  0  0  0  0
   22.8580   -8.3850   37.5460 C   0  0  0  0  0  0  0  0  0  0  0  0
   23.9970   -7.9560   36.8800 C   0  0  0  0  0  0  0  0  0  0  0  0
   25.2520   -7.6970   37.7650 C   0  0  0  0  0  0  0  0  0  0  0  0
   26.3280   -7.3610   37.0450 C   0  0  0  0  0  0  0  0  0  0  0  0
   26.3760   -7.0820   35.7670 C   0  0  0  0  0  0  0  0  0  0  0  0
   25.2570   -7.2010   34.9240 C   0  0  0  0  0  0  0  0  0  0  0  0
   24.1030   -7.6690   35.6190 C   0  0  0  0  0  0  0  0  0  0  0  0
   24.4830   -6.2780   32.9290 C   0  0  0  0  0  0  0  0  0  0  0  0
   24.7110   -6.0410   31.5280 C   0  0  0  0  0  0  0  0  0  0  0  0
   23.5860   -5.9470   30.6340 C   0  0  0  0  0  0  0  0  0  0  0  0
   23.7630   -5.7500   29.3170 C   0  0  0  0  0  0  0  0  0  0  0  0
   25.0870   -5.4460   28.8610 C   0  0  0  0  0  0  0  0  0  0  0  0
   26.1930   -5.5310   29.6520 C   0  0  0  0  0  0  0  0  0  0  0  0
   25.9480   -5.7630   31.0330 C   0  0  0  0  0  0  0  0  0  0  0  0
   26.4610   -5.6940   26.8620 C   0  0  0  0  0  0  0  0  0  0  0  0
   21.9030  -11.7940   33.2200 F   0  0  0  0  0  0  0  0  0  0  0  0
  1  4  1  0  0  0  0
  4  7  2  0  0  0  0
  2  9  1  0  0  0  0
  7  9  1  0  0  0  0
  9 10  2  0  0  0  0
  1 11  2  0  0  0  0
 10 11  1  0  0  0  0
  7 12  1  0  0  0  0
  2 13  1  0  0  0  0
  3 13  2  0  0  0  0
 12 13  1  0  0  0  0
 12 14  1  0  0  0  0
 14 15  1  0  0  0  0
 15 16  2  0  0  0  0
 16 17  1  0  0  0  0
 17 18  2  0  0  0  0
  5 19  1  0  0  0  0
 18 19  1  0  0  0  0
 15 20  1  0  0  0  0
 19 20  2  0  0  0  0
  5 21  1  0  0  0  0
  6 21  2  0  0  0  0
 21 22  1  0  0  0  0
 22 23  2  0  0  0  0
 23 24  1  0  0  0  0
  8 25  1  0  0  0  0
 24 25  2  0  0  0  0
 25 26  1  0  0  0  0
 22 27  1  0  0  0  0
 26 27  2  0  0  0  0
  8 28  1  0  0  0  0
  1 29  1  0  0  0  0
M  END
$$$$
