8IZY
  PyMOL3.1          3D                             0

 46 47  0  0  0  0  0  0  0  0999 V2000
   98.0800  121.2820  112.2670 C   0  0  0  0  0  0  0  0  0  0  0  0
   98.2120  119.8310  111.8100 C   0  0  0  0  0  0  0  0  0  0  0  0
   98.9350  119.5310  110.6670 C   0  0  0  0  0  0  0  0  0  0  0  0
   99.0670  118.2160  110.2410 C   0  0  0  0  0  0  0  0  0  0  0  0
   98.4580  117.2100  110.9790 C   0  0  0  0  0  0  0  0  0  0  0  0
   97.7320  117.5080  112.1210 C   0  0  0  0  0  0  0  0  0  0  0  0
   97.6060  118.8220  112.5390 C   0  0  0  0  0  0  0  0  0  0  0  0
   96.8550  119.1510  113.7410 N   0  0  0  0  0  0  0  0  0  0  0  0
   95.4340  118.8670  113.8330 C   0  0  0  0  0  0  0  0  0  0  0  0
   94.8160  118.5990  112.8580 O   0  0  0  0  0  0  0  0  0  0  0  0
   94.8000  118.9080  115.0800 O   0  0  0  0  0  0  0  0  0  0  0  0
   93.5550  119.5460  115.0740 C   0  0  0  0  0  0  0  0  0  0  0  0
   97.0770  116.3750  112.9090 C   0  0  0  0  0  0  0  0  0  0  0  0
   99.8310  117.9160  109.0310 N   0  0  0  0  0  0  0  0  0  0  0  0
  100.7370  118.9160  108.4850 C   0  0  0  0  0  0  0  0  0  0  0  0
   99.9760  119.7830  107.4820 C   0  0  0  0  0  0  0  0  0  0  0  0
   99.3790  120.4470  106.6990 C   0  0  0  0  0  0  0  0  0  0  0  0
   99.6590  116.6480  108.3230 C   0  0  0  0  0  0  0  0  0  0  0  0
  100.9840  115.9790  107.9460 C   0  0  0  0  0  0  0  0  0  0  0  0
  101.9130  115.6680  108.9220 C   0  0  0  0  0  0  0  0  0  0  0  0
  103.1030  115.0570  108.5700 C   0  0  0  0  0  0  0  0  0  0  0  0
  103.3650  114.7530  107.2460 C   0  0  0  0  0  0  0  0  0  0  0  0
  102.4350  115.0600  106.2690 C   0  0  0  0  0  0  0  0  0  0  0  0
  101.2440  115.6710  106.6210 C   0  0  0  0  0  0  0  0  0  0  0  0
  104.5400  114.1500  106.9030 F   0  0  0  0  0  0  0  0  0  0  0  0
   98.5620  121.4030  113.0640 H   0  0  0  0  0  0  0  0  0  0  0  0
   97.1760  121.4830  112.4140 H   0  0  0  0  0  0  0  0  0  0  0  0
   98.4250  121.8510  111.6040 H   0  0  0  0  0  0  0  0  0  0  0  0
   99.3360  120.2150  110.1850 H   0  0  0  0  0  0  0  0  0  0  0  0
   98.5340  116.3270  110.7060 H   0  0  0  0  0  0  0  0  0  0  0  0
   97.2610  119.5220  114.4120 H   0  0  0  0  0  0  0  0  0  0  0  0
   93.3490  119.8390  115.9420 H   0  0  0  0  0  0  0  0  0  0  0  0
   92.8960  118.9440  114.7840 H   0  0  0  0  0  0  0  0  0  0  0  0
   93.5830  120.2840  114.4930 H   0  0  0  0  0  0  0  0  0  0  0  0
   97.3430  116.4240  113.8080 H   0  0  0  0  0  0  0  0  0  0  0  0
   97.3460  115.5490  112.5500 H   0  0  0  0  0  0  0  0  0  0  0  0
   96.1420  116.4490  112.8530 H   0  0  0  0  0  0  0  0  0  0  0  0
  101.0760  119.4560  109.1740 H   0  0  0  0  0  0  0  0  0  0  0  0
  101.4560  118.5040  108.0470 H   0  0  0  0  0  0  0  0  0  0  0  0
   98.9210  120.9580  106.0960 H   0  0  0  0  0  0  0  0  0  0  0  0
   99.1650  116.0430  108.8380 H   0  0  0  0  0  0  0  0  0  0  0  0
   99.1830  116.8200  107.5340 H   0  0  0  0  0  0  0  0  0  0  0  0
  101.7390  115.8720  109.8120 H   0  0  0  0  0  0  0  0  0  0  0  0
  103.7290  114.8500  109.2240 H   0  0  0  0  0  0  0  0  0  0  0  0
  102.6090  114.8570  105.3800 H   0  0  0  0  0  0  0  0  0  0  0  0
  100.6210  115.8780  105.9650 H   0  0  0  0  0  0  0  0  0  0  0  0
  1  2  1  0  0  0  0
  2  3  1  0  0  0  0
  3  4  2  0  0  0  0
  4  5  1  0  0  0  0
  5  6  2  0  0  0  0
  2  7  2  0  0  0  0
  6  7  1  0  0  0  0
  7  8  1  0  0  0  0
  8  9  1  0  0  0  0
  9 10  2  0  0  0  0
  9 11  1  0  0  0  0
 11 12  1  0  0  0  0
  6 13  1  0  0  0  0
  4 14  1  0  0  0  0
 14 15  1  0  0  0  0
 15 16  1  0  0  0  0
 16 17  3  0  0  0  0
 14 18  1  0  0  0  0
 18 19  1  0  0  0  0
 19 20  2  0  0  0  0
 20 21  1  0  0  0  0
 21 22  2  0  0  0  0
 22 23  1  0  0  0  0
 19 24  1  0  0  0  0
 23 24  2  0  0  0  0
 22 25  1  0  0  0  0
  1 26  1  0  0  0  0
  1 27  1  0  0  0  0
  1 28  1  0  0  0  0
  3 29  1  0  0  0  0
  5 30  1  0  0  0  0
  8 31  1  0  0  0  0
 12 32  1  0  0  0  0
 12 33  1  0  0  0  0
 12 34  1  0  0  0  0
 13 35  1  0  0  0  0
 13 36  1  0  0  0  0
 13 37  1  0  0  0  0
 15 38  1  0  0  0  0
 15 39  1  0  0  0  0
 17 40  1  0  0  0  0
 18 41  1  0  0  0  0
 18 42  1  0  0  0  0
 20 43  1  0  0  0  0
 21 44  1  0  0  0  0
 23 45  1  0  0  0  0
 24 46  1  0  0  0  0
M  END
$$$$
