8IZY
  PyMOL3.1          3D                             0

 46 47  0  0  0  0  0  0  0  0999 V2000
  122.0790   98.0810  112.2650 C   0  0  0  0  0  0  0  0  0  0  0  0
  123.5290   98.2130  111.8090 C   0  0  0  0  0  0  0  0  0  0  0  0
  123.8320   98.9350  110.6660 C   0  0  0  0  0  0  0  0  0  0  0  0
  125.1450   99.0680  110.2410 C   0  0  0  0  0  0  0  0  0  0  0  0
  126.1510   98.4590  110.9790 C   0  0  0  0  0  0  0  0  0  0  0  0
  125.8530   97.7330  112.1210 C   0  0  0  0  0  0  0  0  0  0  0  0
  124.5390   97.6070  112.5390 C   0  0  0  0  0  0  0  0  0  0  0  0
  124.2090   96.8550  113.7400 N   0  0  0  0  0  0  0  0  0  0  0  0
  124.4930   95.4350  113.8330 C   0  0  0  0  0  0  0  0  0  0  0  0
  124.7610   94.8180  112.8580 O   0  0  0  0  0  0  0  0  0  0  0  0
  124.4540   94.8020  115.0800 O   0  0  0  0  0  0  0  0  0  0  0  0
  123.8130   93.5570  115.0760 C   0  0  0  0  0  0  0  0  0  0  0  0
  126.9870   97.0780  112.9100 C   0  0  0  0  0  0  0  0  0  0  0  0
  125.4470   99.8310  109.0310 N   0  0  0  0  0  0  0  0  0  0  0  0
  124.4470  100.7390  108.4860 C   0  0  0  0  0  0  0  0  0  0  0  0
  123.5780   99.9790  107.4840 C   0  0  0  0  0  0  0  0  0  0  0  0
  122.9120   99.3830  106.7010 C   0  0  0  0  0  0  0  0  0  0  0  0
  126.7140   99.6570  108.3220 C   0  0  0  0  0  0  0  0  0  0  0  0
  127.3830  100.9810  107.9450 C   0  0  0  0  0  0  0  0  0  0  0  0
  127.6910  101.9120  108.9210 C   0  0  0  0  0  0  0  0  0  0  0  0
  128.3020  103.1030  108.5670 C   0  0  0  0  0  0  0  0  0  0  0  0
  128.6110  103.3620  107.2440 C   0  0  0  0  0  0  0  0  0  0  0  0
  128.3080  102.4290  106.2690 C   0  0  0  0  0  0  0  0  0  0  0  0
  127.6950  101.2390  106.6200 C   0  0  0  0  0  0  0  0  0  0  0  0
  129.2140  104.5360  106.9000 F   0  0  0  0  0  0  0  0  0  0  0  0
  121.9570   98.5620  113.0630 H   0  0  0  0  0  0  0  0  0  0  0  0
  121.8770   97.1760  112.4120 H   0  0  0  0  0  0  0  0  0  0  0  0
  121.5100   98.4260  111.6020 H   0  0  0  0  0  0  0  0  0  0  0  0
  123.1470   99.3360  110.1830 H   0  0  0  0  0  0  0  0  0  0  0  0
  127.0350   98.5350  110.7060 H   0  0  0  0  0  0  0  0  0  0  0  0
  123.8370   97.2620  114.4110 H   0  0  0  0  0  0  0  0  0  0  0  0
  123.5210   93.3530  115.9450 H   0  0  0  0  0  0  0  0  0  0  0  0
  124.4150   92.8980  114.7860 H   0  0  0  0  0  0  0  0  0  0  0  0
  123.0750   93.5850  114.4950 H   0  0  0  0  0  0  0  0  0  0  0  0
  126.9360   97.3440  113.8090 H   0  0  0  0  0  0  0  0  0  0  0  0
  127.8110   97.3470  112.5510 H   0  0  0  0  0  0  0  0  0  0  0  0
  126.9120   96.1440  112.8530 H   0  0  0  0  0  0  0  0  0  0  0  0
  123.9080  101.0790  109.1750 H   0  0  0  0  0  0  0  0  0  0  0  0
  124.8600  101.4570  108.0470 H   0  0  0  0  0  0  0  0  0  0  0  0
  122.3990   98.9250  106.1000 H   0  0  0  0  0  0  0  0  0  0  0  0
  127.3180   99.1630  108.8380 H   0  0  0  0  0  0  0  0  0  0  0  0
  126.5410   99.1810  107.5340 H   0  0  0  0  0  0  0  0  0  0  0  0
  127.4850  101.7400  109.8100 H   0  0  0  0  0  0  0  0  0  0  0  0
  128.5070  103.7300  109.2210 H   0  0  0  0  0  0  0  0  0  0  0  0
  128.5130  102.6020  105.3790 H   0  0  0  0  0  0  0  0  0  0  0  0
  127.4920  100.6140  105.9650 H   0  0  0  0  0  0  0  0  0  0  0  0
  1  2  1  0  0  0  0
  2  3  1  0  0  0  0
  3  4  2  0  0  0  0
  4  5  1  0  0  0  0
  5  6  2  0  0  0  0
  2  7  2  0  0  0  0
  6  7  1  0  0  0  0
  7  8  1  0  0  0  0
  8  9  1  0  0  0  0
  9 10  2  0  0  0  0
  9 11  1  0  0  0  0
 11 12  1  0  0  0  0
  6 13  1  0  0  0  0
  4 14  1  0  0  0  0
 14 15  1  0  0  0  0
 15 16  1  0  0  0  0
 16 17  3  0  0  0  0
 14 18  1  0  0  0  0
 18 19  1  0  0  0  0
 19 20  2  0  0  0  0
 20 21  1  0  0  0  0
 21 22  2  0  0  0  0
 22 23  1  0  0  0  0
 19 24  1  0  0  0  0
 23 24  2  0  0  0  0
 22 25  1  0  0  0  0
  1 26  1  0  0  0  0
  1 27  1  0  0  0  0
  1 28  1  0  0  0  0
  3 29  1  0  0  0  0
  5 30  1  0  0  0  0
  8 31  1  0  0  0  0
 12 32  1  0  0  0  0
 12 33  1  0  0  0  0
 12 34  1  0  0  0  0
 13 35  1  0  0  0  0
 13 36  1  0  0  0  0
 13 37  1  0  0  0  0
 15 38  1  0  0  0  0
 15 39  1  0  0  0  0
 17 40  1  0  0  0  0
 18 41  1  0  0  0  0
 18 42  1  0  0  0  0
 20 43  1  0  0  0  0
 21 44  1  0  0  0  0
 23 45  1  0  0  0  0
 24 46  1  0  0  0  0
M  END
$$$$
