8IZY
  PyMOL3.1          3D                             0

 46 47  0  0  0  0  0  0  0  0999 V2000
  126.2120  111.5870  105.4110 C   0  0  0  0  0  0  0  0  0  0  0  0
  126.6030  110.1140  105.4540 C   0  0  0  0  0  0  0  0  0  0  0  0
  125.6570  109.1530  105.1570 C   0  0  0  0  0  0  0  0  0  0  0  0
  125.9930  107.8110  105.1860 C   0  0  0  0  0  0  0  0  0  0  0  0
  127.2830  107.4350  105.5190 C   0  0  0  0  0  0  0  0  0  0  0  0
  128.2330  108.3970  105.8160 C   0  0  0  0  0  0  0  0  0  0  0  0
  127.8930  109.7370  105.7810 C   0  0  0  0  0  0  0  0  0  0  0  0
  128.8880  110.7480  106.0950 N   0  0  0  0  0  0  0  0  0  0  0  0
  128.9970  111.2450  107.4530 C   0  0  0  0  0  0  0  0  0  0  0  0
  128.2450  110.8590  108.2800 O   0  0  0  0  0  0  0  0  0  0  0  0
  129.9850  112.1750  107.7880 O   0  0  0  0  0  0  0  0  0  0  0  0
  130.0930  112.4120  109.1620 C   0  0  0  0  0  0  0  0  0  0  0  0
  129.6550  107.9740  106.1790 C   0  0  0  0  0  0  0  0  0  0  0  0
  124.9870  106.8080  104.8830 N   0  0  0  0  0  0  0  0  0  0  0  0
  123.8650  107.1310  104.0240 C   0  0  0  0  0  0  0  0  0  0  0  0
  122.8130  107.8670  104.8520 C   0  0  0  0  0  0  0  0  0  0  0  0
  122.0150  108.4510  105.5120 C   0  0  0  0  0  0  0  0  0  0  0  0
  125.0590  105.4890  105.4920 C   0  0  0  0  0  0  0  0  0  0  0  0
  125.6100  104.4280  104.5420 C   0  0  0  0  0  0  0  0  0  0  0  0
  126.6330  104.7310  103.6630 C   0  0  0  0  0  0  0  0  0  0  0  0
  127.1270  103.7540  102.8150 C   0  0  0  0  0  0  0  0  0  0  0  0
  126.6000  102.4740  102.8510 C   0  0  0  0  0  0  0  0  0  0  0  0
  125.5810  102.1700  103.7340 C   0  0  0  0  0  0  0  0  0  0  0  0
  125.0870  103.1470  104.5810 C   0  0  0  0  0  0  0  0  0  0  0  0
  127.0850  101.5100  102.0160 F   0  0  0  0  0  0  0  0  0  0  0  0
  126.8280  112.0600  104.8810 H   0  0  0  0  0  0  0  0  0  0  0  0
  126.2120  111.9350  106.2820 H   0  0  0  0  0  0  0  0  0  0  0  0
  125.3530  111.6720  105.0420 H   0  0  0  0  0  0  0  0  0  0  0  0
  124.7930  109.4110  104.9370 H   0  0  0  0  0  0  0  0  0  0  0  0
  127.5100  106.5360  105.5420 H   0  0  0  0  0  0  0  0  0  0  0  0
  129.4140  111.0520  105.4740 H   0  0  0  0  0  0  0  0  0  0  0  0
  130.7310  113.0830  109.3140 H   0  0  0  0  0  0  0  0  0  0  0  0
  130.3590  111.6220  109.5950 H   0  0  0  0  0  0  0  0  0  0  0  0
  129.2620  112.6890  109.4990 H   0  0  0  0  0  0  0  0  0  0  0  0
  130.2280  108.1470  105.4550 H   0  0  0  0  0  0  0  0  0  0  0  0
  129.6690  107.0560  106.3760 H   0  0  0  0  0  0  0  0  0  0  0  0
  129.9440  108.4590  106.9300 H   0  0  0  0  0  0  0  0  0  0  0  0
  124.1530  107.6800  103.3190 H   0  0  0  0  0  0  0  0  0  0  0  0
  123.4960  106.3400  103.6780 H   0  0  0  0  0  0  0  0  0  0  0  0
  121.4020  108.8980  106.0190 H   0  0  0  0  0  0  0  0  0  0  0  0
  125.6030  105.5260  106.2550 H   0  0  0  0  0  0  0  0  0  0  0  0
  124.1940  105.2340  105.7540 H   0  0  0  0  0  0  0  0  0  0  0  0
  126.9870  105.5900  103.6380 H   0  0  0  0  0  0  0  0  0  0  0  0
  127.8120  103.9570  102.2210 H   0  0  0  0  0  0  0  0  0  0  0  0
  125.2260  101.3110  103.7570 H   0  0  0  0  0  0  0  0  0  0  0  0
  124.4020  102.9430  105.1750 H   0  0  0  0  0  0  0  0  0  0  0  0
  1  2  1  0  0  0  0
  2  3  1  0  0  0  0
  3  4  2  0  0  0  0
  4  5  1  0  0  0  0
  5  6  2  0  0  0  0
  2  7  2  0  0  0  0
  6  7  1  0  0  0  0
  7  8  1  0  0  0  0
  8  9  1  0  0  0  0
  9 10  2  0  0  0  0
  9 11  1  0  0  0  0
 11 12  1  0  0  0  0
  6 13  1  0  0  0  0
  4 14  1  0  0  0  0
 14 15  1  0  0  0  0
 15 16  1  0  0  0  0
 16 17  3  0  0  0  0
 14 18  1  0  0  0  0
 18 19  1  0  0  0  0
 19 20  2  0  0  0  0
 20 21  1  0  0  0  0
 21 22  2  0  0  0  0
 22 23  1  0  0  0  0
 19 24  1  0  0  0  0
 23 24  2  0  0  0  0
 22 25  1  0  0  0  0
  1 26  1  0  0  0  0
  1 27  1  0  0  0  0
  1 28  1  0  0  0  0
  3 29  1  0  0  0  0
  5 30  1  0  0  0  0
  8 31  1  0  0  0  0
 12 32  1  0  0  0  0
 12 33  1  0  0  0  0
 12 34  1  0  0  0  0
 13 35  1  0  0  0  0
 13 36  1  0  0  0  0
 13 37  1  0  0  0  0
 15 38  1  0  0  0  0
 15 39  1  0  0  0  0
 17 40  1  0  0  0  0
 18 41  1  0  0  0  0
 18 42  1  0  0  0  0
 20 43  1  0  0  0  0
 21 44  1  0  0  0  0
 23 45  1  0  0  0  0
 24 46  1  0  0  0  0
M  END
$$$$
