8IZY
  PyMOL3.1          3D                             0

 46 47  0  0  0  0  0  0  0  0999 V2000
  117.1520  131.7730  105.4090 C   0  0  0  0  0  0  0  0  0  0  0  0
  116.7600  133.2450  105.4520 C   0  0  0  0  0  0  0  0  0  0  0  0
  117.7050  134.2080  105.1560 C   0  0  0  0  0  0  0  0  0  0  0  0
  117.3690  135.5490  105.1850 C   0  0  0  0  0  0  0  0  0  0  0  0
  116.0790  135.9230  105.5180 C   0  0  0  0  0  0  0  0  0  0  0  0
  115.1290  134.9610  105.8140 C   0  0  0  0  0  0  0  0  0  0  0  0
  115.4690  133.6200  105.7790 C   0  0  0  0  0  0  0  0  0  0  0  0
  114.4740  132.6100  106.0930 N   0  0  0  0  0  0  0  0  0  0  0  0
  114.3650  132.1140  107.4510 C   0  0  0  0  0  0  0  0  0  0  0  0
  115.1170  132.4990  108.2790 O   0  0  0  0  0  0  0  0  0  0  0  0
  113.3760  131.1840  107.7860 O   0  0  0  0  0  0  0  0  0  0  0  0
  113.2660  130.9500  109.1610 C   0  0  0  0  0  0  0  0  0  0  0  0
  113.7060  135.3830  106.1780 C   0  0  0  0  0  0  0  0  0  0  0  0
  118.3730  136.5530  104.8820 N   0  0  0  0  0  0  0  0  0  0  0  0
  119.4950  136.2310  104.0240 C   0  0  0  0  0  0  0  0  0  0  0  0
  120.5490  135.4970  104.8520 C   0  0  0  0  0  0  0  0  0  0  0  0
  121.3470  134.9160  105.5130 C   0  0  0  0  0  0  0  0  0  0  0  0
  118.3010  137.8720  105.4920 C   0  0  0  0  0  0  0  0  0  0  0  0
  117.7510  138.9330  104.5420 C   0  0  0  0  0  0  0  0  0  0  0  0
  116.7280  138.6300  103.6610 C   0  0  0  0  0  0  0  0  0  0  0  0
  116.2360  139.6060  102.8120 C   0  0  0  0  0  0  0  0  0  0  0  0
  116.7620  140.8860  102.8490 C   0  0  0  0  0  0  0  0  0  0  0  0
  117.7810  141.1900  103.7320 C   0  0  0  0  0  0  0  0  0  0  0  0
  118.2730  140.2130  104.5800 C   0  0  0  0  0  0  0  0  0  0  0  0
  116.2790  141.8500  102.0140 F   0  0  0  0  0  0  0  0  0  0  0  0
  116.5370  131.2990  104.8810 H   0  0  0  0  0  0  0  0  0  0  0  0
  117.1530  131.4260  106.2810 H   0  0  0  0  0  0  0  0  0  0  0  0
  118.0110  131.6890  105.0390 H   0  0  0  0  0  0  0  0  0  0  0  0
  118.5700  133.9500  104.9360 H   0  0  0  0  0  0  0  0  0  0  0  0
  115.8490  136.8230  105.5420 H   0  0  0  0  0  0  0  0  0  0  0  0
  113.9500  132.3050  105.4720 H   0  0  0  0  0  0  0  0  0  0  0  0
  112.6270  130.2780  109.3130 H   0  0  0  0  0  0  0  0  0  0  0  0
  113.0000  131.7390  109.5930 H   0  0  0  0  0  0  0  0  0  0  0  0
  114.0970  130.6710  109.5000 H   0  0  0  0  0  0  0  0  0  0  0  0
  113.1330  135.2100  105.4540 H   0  0  0  0  0  0  0  0  0  0  0  0
  113.6920  136.3010  106.3750 H   0  0  0  0  0  0  0  0  0  0  0  0
  113.4170  134.8980  106.9280 H   0  0  0  0  0  0  0  0  0  0  0  0
  119.2070  135.6810  103.3190 H   0  0  0  0  0  0  0  0  0  0  0  0
  119.8630  137.0220  103.6760 H   0  0  0  0  0  0  0  0  0  0  0  0
  121.9600  134.4700  106.0210 H   0  0  0  0  0  0  0  0  0  0  0  0
  117.7560  137.8330  106.2540 H   0  0  0  0  0  0  0  0  0  0  0  0
  119.1660  138.1260  105.7540 H   0  0  0  0  0  0  0  0  0  0  0  0
  116.3740  137.7710  103.6360 H   0  0  0  0  0  0  0  0  0  0  0  0
  115.5520  139.4030  102.2180 H   0  0  0  0  0  0  0  0  0  0  0  0
  118.1350  142.0490  103.7570 H   0  0  0  0  0  0  0  0  0  0  0  0
  118.9580  140.4180  105.1740 H   0  0  0  0  0  0  0  0  0  0  0  0
  1  2  1  0  0  0  0
  2  3  1  0  0  0  0
  3  4  2  0  0  0  0
  4  5  1  0  0  0  0
  5  6  2  0  0  0  0
  2  7  2  0  0  0  0
  6  7  1  0  0  0  0
  7  8  1  0  0  0  0
  8  9  1  0  0  0  0
  9 10  2  0  0  0  0
  9 11  1  0  0  0  0
 11 12  1  0  0  0  0
  6 13  1  0  0  0  0
  4 14  1  0  0  0  0
 14 15  1  0  0  0  0
 15 16  1  0  0  0  0
 16 17  3  0  0  0  0
 14 18  1  0  0  0  0
 18 19  1  0  0  0  0
 19 20  2  0  0  0  0
 20 21  1  0  0  0  0
 21 22  2  0  0  0  0
 22 23  1  0  0  0  0
 19 24  1  0  0  0  0
 23 24  2  0  0  0  0
 22 25  1  0  0  0  0
  1 26  1  0  0  0  0
  1 27  1  0  0  0  0
  1 28  1  0  0  0  0
  3 29  1  0  0  0  0
  5 30  1  0  0  0  0
  8 31  1  0  0  0  0
 12 32  1  0  0  0  0
 12 33  1  0  0  0  0
 12 34  1  0  0  0  0
 13 35  1  0  0  0  0
 13 36  1  0  0  0  0
 13 37  1  0  0  0  0
 15 38  1  0  0  0  0
 15 39  1  0  0  0  0
 17 40  1  0  0  0  0
 18 41  1  0  0  0  0
 18 42  1  0  0  0  0
 20 43  1  0  0  0  0
 21 44  1  0  0  0  0
 23 45  1  0  0  0  0
 24 46  1  0  0  0  0
M  END
$$$$
