8ORM
  PyMOL3.1          3D                             0

 41 45  0  0  0  0  0  0  0  0999 V2000
  152.0310  136.0020  125.5580 Cl  0  0  0  0  0  0  0  0  0  0  0  0
  153.4580  136.7820  124.8250 C   0  0  0  0  0  0  0  0  0  0  0  0
  153.4240  137.1050  123.4760 C   0  0  0  0  0  0  0  0  0  0  0  0
  154.4800  137.6810  122.9330 N   0  0  0  0  0  0  0  0  0  0  0  0
  155.5580  137.9500  123.6380 C   0  0  0  0  0  0  0  0  0  0  0  0
  156.6760  138.6000  122.9530 N   0  0  0  0  0  0  0  0  0  0  0  0
  158.0850  138.5430  123.3490 C   0  0  0  0  0  0  0  0  0  0  0  0
  159.0200  139.0650  122.4640 C   0  0  0  0  0  0  0  0  0  0  0  0
  160.3670  139.0440  122.7820 C   0  0  0  0  0  0  0  0  0  0  0  0
  161.3330  139.5920  121.8290 N   0  0  0  0  0  0  0  0  0  0  0  0
  161.8420  140.9540  121.9590 C   0  0  0  0  0  0  0  0  0  0  0  0
  162.8600  141.4270  120.9010 C   0  0  0  0  0  0  0  0  0  0  0  0
  163.7110  142.5000  121.1370 C   0  0  0  0  0  0  0  0  0  0  0  0
  164.6240  142.8810  120.1540 C   0  0  0  0  0  0  0  0  0  0  0  0
  164.6780  142.1990  118.9420 C   0  0  0  0  0  0  0  0  0  0  0  0
  165.6280  142.5590  117.8790 N   0  0  0  0  0  0  0  0  0  0  0  0
  166.2350  143.8770  117.6840 C   0  0  0  0  0  0  0  0  0  0  0  0
  167.2150  144.0580  116.5130 C   0  0  0  0  0  0  0  0  0  0  0  0
  168.6820  143.9770  116.9530 C   0  0  0  0  0  0  0  0  0  0  0  0
  168.9350  142.9070  118.0250 C   0  0  0  0  0  0  0  0  0  0  0  0
  170.0990  142.0710  117.7460 N   0  0  0  0  0  0  0  0  0  0  0  0
  171.2510  142.5450  118.4920 C   0  0  0  0  0  0  0  0  0  0  0  0
  170.4110  142.0090  116.3260 C   0  0  0  0  0  0  0  0  0  0  0  0
  165.9880  144.7910  118.3910 O   0  0  0  0  0  0  0  0  0  0  0  0
  163.8300  141.1230  118.7210 C   0  0  0  0  0  0  0  0  0  0  0  0
  162.9200  140.7400  119.6990 C   0  0  0  0  0  0  0  0  0  0  0  0
  161.4880  141.6570  122.8450 O   0  0  0  0  0  0  0  0  0  0  0  0
  160.8000  138.5000  123.9810 C   0  0  0  0  0  0  0  0  0  0  0  0
  159.8700  137.9760  124.8720 C   0  0  0  0  0  0  0  0  0  0  0  0
  158.5180  138.0000  124.5520 C   0  0  0  0  0  0  0  0  0  0  0  0
  155.6080  137.6600  124.9230 N   0  0  0  0  0  0  0  0  0  0  0  0
  154.6030  137.0810  125.5590 C   0  0  0  0  0  0  0  0  0  0  0  0
  154.7510  136.7740  127.0530 C   0  0  0  0  0  0  0  0  0  0  0  0
  153.7560  136.7920  128.0180 C   0  0  0  0  0  0  0  0  0  0  0  0
  154.3110  136.4780  129.1870 N   0  0  0  0  0  0  0  0  0  0  0  0
  155.6490  136.2640  129.0160 C   0  0  0  0  0  0  0  0  0  0  0  0
  156.6620  135.9130  129.9480 C   0  0  0  0  0  0  0  0  0  0  0  0
  157.9720  135.7510  129.5190 C   0  0  0  0  0  0  0  0  0  0  0  0
  158.2940  135.9360  128.1750 C   0  0  0  0  0  0  0  0  0  0  0  0
  157.3000  136.2810  127.2630 C   0  0  0  0  0  0  0  0  0  0  0  0
  155.9640  136.4440  127.6990 C   0  0  0  0  0  0  0  0  0  0  0  0
  1  2  1  0  0  0  0
  2  3  1  0  0  0  0
  3  4  2  0  0  0  0
  4  5  1  0  0  0  0
  5  6  1  0  0  0  0
  6  7  1  0  0  0  0
  7  8  1  0  0  0  0
  8  9  2  0  0  0  0
  9 10  1  0  0  0  0
 10 11  1  0  0  0  0
 11 12  1  0  0  0  0
 12 13  1  0  0  0  0
 13 14  2  0  0  0  0
 14 15  1  0  0  0  0
 15 16  1  0  0  0  0
 16 17  1  0  0  0  0
 17 18  1  0  0  0  0
 18 19  1  0  0  0  0
 19 20  1  0  0  0  0
 20 21  1  0  0  0  0
 21 22  1  0  0  0  0
 21 23  1  0  0  0  0
 17 24  2  0  0  0  0
 15 25  2  0  0  0  0
 12 26  2  0  0  0  0
 25 26  1  0  0  0  0
 11 27  2  0  0  0  0
  9 28  1  0  0  0  0
 28 29  2  0  0  0  0
  7 30  2  0  0  0  0
 29 30  1  0  0  0  0
  5 31  2  0  0  0  0
  2 32  2  0  0  0  0
 31 32  1  0  0  0  0
 32 33  1  0  0  0  0
 33 34  2  0  0  0  0
 34 35  1  0  0  0  0
 35 36  1  0  0  0  0
 36 37  2  0  0  0  0
 37 38  1  0  0  0  0
 38 39  2  0  0  0  0
 39 40  1  0  0  0  0
 33 41  1  0  0  0  0
 36 41  1  0  0  0  0
 40 41  2  0  0  0  0
M  END
$$$$
