8R42
  PyMOL3.1          3D                             0

 25 28  0  0  0  0  0  0  0  0999 V2000
  -47.9900   -4.0100   69.1780 Cl  0  0  0  0  0  0  0  0  0  0  0  0
  -48.8030   -4.8350   67.8770 C   0  0  0  0  0  0  0  0  0  0  0  0
  -48.8890   -6.3430   67.8980 C   0  0  0  0  0  0  0  0  0  0  0  0
  -49.5110   -6.9910   66.8800 C   0  0  0  0  0  0  0  0  0  0  0  0
  -50.1120   -6.2030   65.7410 C   0  0  0  0  0  0  0  0  0  0  0  0
  -50.0450   -4.8540   65.7170 C   0  0  0  0  0  0  0  0  0  0  0  0
  -49.3400   -4.1310   66.8590 C   0  0  0  0  0  0  0  0  0  0  0  0
  -50.8230   -6.9800   64.6240 C   0  0  0  0  0  0  0  0  0  0  0  0
  -50.3810   -6.5340   63.1780 C   0  0  0  0  0  0  0  0  0  0  0  0
  -48.9520   -6.8820   62.9860 C   0  0  0  0  0  0  0  0  0  0  0  0
  -49.0260   -8.2550   62.5910 C   0  0  0  0  0  0  0  0  0  0  0  0
  -50.3950   -8.3240   61.8710 C   0  0  0  0  0  0  0  0  0  0  0  0
  -51.1290   -7.3110   62.3730 N   0  0  0  0  0  0  0  0  0  0  0  0
  -51.8570   -6.6470   61.4940 C   0  0  0  0  0  0  0  0  0  0  0  0
  -52.8190   -5.6470   62.2060 C   0  0  0  0  0  0  0  0  0  0  0  0
  -53.8960   -5.2420   61.1980 C   0  0  0  0  0  0  0  0  0  0  0  0
  -54.6260   -6.1760   60.3990 N   0  0  0  0  0  0  0  0  0  0  0  0
  -54.2000   -7.5320   60.3540 C   0  0  0  0  0  0  0  0  0  0  0  0
  -52.6820   -7.6380   60.6010 C   0  0  0  0  0  0  0  0  0  0  0  0
  -55.9940   -5.8740   60.1130 C   0  0  0  0  0  0  0  0  0  0  0  0
  -56.5070   -4.5170   59.9740 C   0  0  0  0  0  0  0  0  0  0  0  0
  -57.7610   -4.2520   59.7170 C   0  0  0  0  0  0  0  0  0  0  0  0
  -58.6090   -5.1210   59.5860 C   0  0  0  0  0  0  0  0  0  0  0  0
  -58.3590   -6.3960   59.6780 C   0  0  0  0  0  0  0  0  0  0  0  0
  -57.0790   -6.9180   59.9500 N   0  0  0  0  0  0  0  0  0  0  0  0
  1  2  1  0  0  0  0
  2  3  1  0  0  0  0
  3  4  2  0  0  0  0
  4  5  1  0  0  0  0
  5  6  2  0  0  0  0
  2  7  2  0  0  0  0
  6  7  1  0  0  0  0
  5  8  1  0  0  0  0
  8  9  1  0  0  0  0
  9 10  1  0  0  0  0
 10 11  1  0  0  0  0
 11 12  1  0  0  0  0
  9 13  1  0  0  0  0
 12 13  1  0  0  0  0
 13 14  1  0  0  0  0
 14 15  1  0  0  0  0
 15 16  1  0  0  0  0
 16 17  1  0  0  0  0
 17 18  1  0  0  0  0
 14 19  1  0  0  0  0
 18 19  1  0  0  0  0
 17 20  1  0  0  0  0
 20 21  1  0  0  0  0
 21 22  2  0  0  0  0
 22 23  1  0  0  0  0
 23 24  2  0  0  0  0
 20 25  2  0  0  0  0
 24 25  1  0  0  0  0
M  END
$$$$
