7W4O
  PyMOL3.1          3D                             0

 17 19  0  0  0  0  0  0  0  0999 V2000
   72.0340  184.9930  144.9820 Cl  0  0  0  0  0  0  0  0  0  0  0  0
   73.9450  180.8770  141.2070 S   0  0  0  0  0  0  0  0  0  0  0  0
   72.5240  182.9380  142.8560 S   0  0  0  0  0  0  0  0  0  0  0  0
   72.9750  179.8130  141.4840 O   0  0  0  0  0  0  0  0  0  0  0  0
   73.7920  181.6040  139.9400 O   0  0  0  0  0  0  0  0  0  0  0  0
   77.7540  179.9190  142.0730 N   0  0  0  0  0  0  0  0  0  0  0  0
   76.1790  181.6030  143.2050 N   0  0  0  0  0  0  0  0  0  0  0  0
   75.3800  180.1590  141.1230 N   0  0  0  0  0  0  0  0  0  0  0  0
   78.1220  178.9040  141.0940 C   0  0  0  0  0  0  0  0  0  0  0  0
   79.0690  177.8720  141.7060 C   0  0  0  0  0  0  0  0  0  0  0  0
   77.6260  177.4780  141.3610 C   0  0  0  0  0  0  0  0  0  0  0  0
   78.3530  179.2850  139.6150 C   0  0  0  0  0  0  0  0  0  0  0  0
   76.4300  180.5280  142.0910 C   0  0  0  0  0  0  0  0  0  0  0  0
   74.8080  182.3240  143.3290 C   0  0  0  0  0  0  0  0  0  0  0  0
   73.7260  182.0320  142.4310 C   0  0  0  0  0  0  0  0  0  0  0  0
   74.3450  183.4400  144.3820 C   0  0  0  0  0  0  0  0  0  0  0  0
   72.9820  183.7870  144.0750 C   0  0  0  0  0  0  0  0  0  0  0  0
  2  4  2  0  0  0  0
  2  5  2  0  0  0  0
  2  8  1  0  0  0  0
  6  9  1  0  0  0  0
  9 10  1  0  0  0  0
  9 11  1  0  0  0  0
 10 11  1  0  0  0  0
  9 12  1  0  0  0  0
  6 13  1  0  0  0  0
  7 13  1  0  0  0  0
  8 13  2  0  0  0  0
  7 14  1  0  0  0  0
  2 15  1  0  0  0  0
  3 15  1  0  0  0  0
 14 15  2  0  0  0  0
 14 16  1  0  0  0  0
  1 17  1  0  0  0  0
  3 17  1  0  0  0  0
 16 17  2  0  0  0  0
M  END
$$$$
