7W4O
  PyMOL3.1          3D                             0

 17 19  0  0  0  0  0  0  0  0999 V2000
  184.9930  166.2860  144.9820 Cl  0  0  0  0  0  0  0  0  0  0  0  0
  180.8770  164.3750  141.2070 S   0  0  0  0  0  0  0  0  0  0  0  0
  182.9380  165.7960  142.8560 S   0  0  0  0  0  0  0  0  0  0  0  0
  179.8130  165.3450  141.4840 O   0  0  0  0  0  0  0  0  0  0  0  0
  181.6040  164.5280  139.9400 O   0  0  0  0  0  0  0  0  0  0  0  0
  179.9190  160.5660  142.0730 N   0  0  0  0  0  0  0  0  0  0  0  0
  181.6030  162.1410  143.2050 N   0  0  0  0  0  0  0  0  0  0  0  0
  180.1590  162.9400  141.1230 N   0  0  0  0  0  0  0  0  0  0  0  0
  178.9040  160.1980  141.0940 C   0  0  0  0  0  0  0  0  0  0  0  0
  177.8720  159.2510  141.7060 C   0  0  0  0  0  0  0  0  0  0  0  0
  177.4780  160.6940  141.3610 C   0  0  0  0  0  0  0  0  0  0  0  0
  179.2850  159.9670  139.6150 C   0  0  0  0  0  0  0  0  0  0  0  0
  180.5280  161.8900  142.0910 C   0  0  0  0  0  0  0  0  0  0  0  0
  182.3240  163.5120  143.3290 C   0  0  0  0  0  0  0  0  0  0  0  0
  182.0320  164.5940  142.4310 C   0  0  0  0  0  0  0  0  0  0  0  0
  183.4400  163.9750  144.3820 C   0  0  0  0  0  0  0  0  0  0  0  0
  183.7870  165.3380  144.0750 C   0  0  0  0  0  0  0  0  0  0  0  0
  2  4  2  0  0  0  0
  2  5  2  0  0  0  0
  2  8  1  0  0  0  0
  6  9  1  0  0  0  0
  9 11  1  0  0  0  0
  9 12  1  0  0  0  0
  9 10  1  0  0  0  0
 10 11  1  0  0  0  0
  6 13  1  0  0  0  0
  7 13  1  0  0  0  0
  8 13  1  0  0  0  0
  7 14  1  0  0  0  0
 14 16  4  0  0  0  0
  2 15  1  0  0  0  0
  3 15  4  0  0  0  0
 14 15  4  0  0  0  0
  1 17  1  0  0  0  0
  3 17  4  0  0  0  0
 16 17  4  0  0  0  0
M  END
$$$$
