8R42
  PyMOL3.1          3D                             0

 50 56  0  0  0  0  0  0  0  0999 V2000
  -34.0730  -31.7040   34.4310 Cl  0  0  0  0  0  0  0  0  0  0  0  0
  -33.2590  -30.4030   35.2570 C   0  0  0  0  0  0  0  0  0  0  0  0
  -33.0970  -30.4650   36.7600 C   0  0  0  0  0  0  0  0  0  0  0  0
  -32.4710  -29.4470   37.4090 C   0  0  0  0  0  0  0  0  0  0  0  0
  -31.9440  -28.2610   36.6340 C   0  0  0  0  0  0  0  0  0  0  0  0
  -32.0790  -28.2010   35.2860 C   0  0  0  0  0  0  0  0  0  0  0  0
  -32.7860  -29.3450   34.5620 C   0  0  0  0  0  0  0  0  0  0  0  0
  -31.2310  -27.1500   37.4280 C   0  0  0  0  0  0  0  0  0  0  0  0
  -31.7100  -25.6910   37.0620 C   0  0  0  0  0  0  0  0  0  0  0  0
  -33.1210  -25.5230   37.4890 C   0  0  0  0  0  0  0  0  0  0  0  0
  -32.9990  -25.0100   38.8200 C   0  0  0  0  0  0  0  0  0  0  0  0
  -31.6270  -24.2980   38.7880 C   0  0  0  0  0  0  0  0  0  0  0  0
  -30.9220  -24.8760   37.7960 N   0  0  0  0  0  0  0  0  0  0  0  0
  -30.2250  -24.0150   37.0760 C   0  0  0  0  0  0  0  0  0  0  0  0
  -29.3830  -24.7230   35.9660 C   0  0  0  0  0  0  0  0  0  0  0  0
  -28.1940  -23.8320   35.6060 C   0  0  0  0  0  0  0  0  0  0  0  0
  -27.3700  -23.1770   36.5740 N   0  0  0  0  0  0  0  0  0  0  0  0
  -27.7880  -23.0860   37.9280 C   0  0  0  0  0  0  0  0  0  0  0  0
  -29.3200  -23.1560   38.0190 C   0  0  0  0  0  0  0  0  0  0  0  0
  -26.0190  -22.8510   36.2460 C   0  0  0  0  0  0  0  0  0  0  0  0
  -25.5660  -22.5520   34.8980 C   0  0  0  0  0  0  0  0  0  0  0  0
  -24.3280  -22.2520   34.6140 C   0  0  0  0  0  0  0  0  0  0  0  0
  -23.4500  -22.2040   35.4600 C   0  0  0  0  0  0  0  0  0  0  0  0
  -23.6450  -22.4310   36.7270 C   0  0  0  0  0  0  0  0  0  0  0  0
  -24.9010  -22.7710   37.2640 N   0  0  0  0  0  0  0  0  0  0  0  0
  -47.9900   -4.0100   69.1780 Cl  0  0  0  0  0  0  0  0  0  0  0  0
  -48.8030   -4.8350   67.8770 C   0  0  0  0  0  0  0  0  0  0  0  0
  -48.8890   -6.3430   67.8980 C   0  0  0  0  0  0  0  0  0  0  0  0
  -49.5110   -6.9910   66.8800 C   0  0  0  0  0  0  0  0  0  0  0  0
  -50.1120   -6.2030   65.7410 C   0  0  0  0  0  0  0  0  0  0  0  0
  -50.0450   -4.8540   65.7170 C   0  0  0  0  0  0  0  0  0  0  0  0
  -49.3400   -4.1310   66.8590 C   0  0  0  0  0  0  0  0  0  0  0  0
  -50.8230   -6.9800   64.6240 C   0  0  0  0  0  0  0  0  0  0  0  0
  -50.3810   -6.5340   63.1780 C   0  0  0  0  0  0  0  0  0  0  0  0
  -48.9520   -6.8820   62.9860 C   0  0  0  0  0  0  0  0  0  0  0  0
  -49.0260   -8.2550   62.5910 C   0  0  0  0  0  0  0  0  0  0  0  0
  -50.3950   -8.3240   61.8710 C   0  0  0  0  0  0  0  0  0  0  0  0
  -51.1290   -7.3110   62.3730 N   0  0  0  0  0  0  0  0  0  0  0  0
  -51.8570   -6.6470   61.4940 C   0  0  0  0  0  0  0  0  0  0  0  0
  -52.8190   -5.6470   62.2060 C   0  0  0  0  0  0  0  0  0  0  0  0
  -53.8960   -5.2420   61.1980 C   0  0  0  0  0  0  0  0  0  0  0  0
  -54.6260   -6.1760   60.3990 N   0  0  0  0  0  0  0  0  0  0  0  0
  -54.2000   -7.5320   60.3540 C   0  0  0  0  0  0  0  0  0  0  0  0
  -52.6820   -7.6380   60.6010 C   0  0  0  0  0  0  0  0  0  0  0  0
  -55.9940   -5.8740   60.1130 C   0  0  0  0  0  0  0  0  0  0  0  0
  -56.5070   -4.5170   59.9740 C   0  0  0  0  0  0  0  0  0  0  0  0
  -57.7610   -4.2520   59.7170 C   0  0  0  0  0  0  0  0  0  0  0  0
  -58.6090   -5.1210   59.5860 C   0  0  0  0  0  0  0  0  0  0  0  0
  -58.3590   -6.3960   59.6780 C   0  0  0  0  0  0  0  0  0  0  0  0
  -57.0790   -6.9180   59.9500 N   0  0  0  0  0  0  0  0  0  0  0  0
  1  2  1  0  0  0  0
  2  3  1  0  0  0  0
  3  4  2  0  0  0  0
  4  5  1  0  0  0  0
  5  6  2  0  0  0  0
  2  7  2  0  0  0  0
  6  7  1  0  0  0  0
  5  8  1  0  0  0  0
  8  9  1  0  0  0  0
  9 10  1  0  0  0  0
 10 11  1  0  0  0  0
 11 12  1  0  0  0  0
  9 13  1  0  0  0  0
 12 13  1  0  0  0  0
 13 14  1  0  0  0  0
 14 15  1  0  0  0  0
 15 16  1  0  0  0  0
 16 17  1  0  0  0  0
 17 18  1  0  0  0  0
 14 19  1  0  0  0  0
 18 19  1  0  0  0  0
 17 20  1  0  0  0  0
 20 21  1  0  0  0  0
 21 22  2  0  0  0  0
 22 23  1  0  0  0  0
 23 24  2  0  0  0  0
 20 25  2  0  0  0  0
 24 25  1  0  0  0  0
 26 27  1  0  0  0  0
 27 28  1  0  0  0  0
 28 29  2  0  0  0  0
 29 30  1  0  0  0  0
 30 31  2  0  0  0  0
 27 32  2  0  0  0  0
 31 32  1  0  0  0  0
 30 33  1  0  0  0  0
 33 34  1  0  0  0  0
 34 35  1  0  0  0  0
 35 36  1  0  0  0  0
 36 37  1  0  0  0  0
 34 38  1  0  0  0  0
 37 38  1  0  0  0  0
 38 39  1  0  0  0  0
 39 40  1  0  0  0  0
 40 41  1  0  0  0  0
 41 42  1  0  0  0  0
 42 43  1  0  0  0  0
 39 44  1  0  0  0  0
 43 44  1  0  0  0  0
 42 45  1  0  0  0  0
 45 46  1  0  0  0  0
 46 47  2  0  0  0  0
 47 48  1  0  0  0  0
 48 49  2  0  0  0  0
 45 50  2  0  0  0  0
 49 50  1  0  0  0  0
M  END
$$$$
