8EGN
  PyMOL3.1          3D                             0

 31 35  0  0  0  0  0  0  0  0999 V2000
  -36.9188    3.1079   26.3432 C   0  0  0  0  0  0  0  0  0  0  0  0
  -36.5628    1.9926   27.2116 N   0  0  0  0  0  0  0  0  0  0  0  0
  -36.8621    0.6655   27.2704 C   0  0  0  0  0  0  0  0  0  0  0  0
  -37.7546   -0.1256   26.3138 C   0  0  0  0  0  0  0  0  0  0  0  0
  -39.1666    0.4884   26.2713 C   0  0  0  0  0  0  0  0  0  0  0  0
  -37.9219   -1.5692   26.8239 C   0  0  0  0  0  0  0  0  0  0  0  0
  -37.1729   -0.1255   24.8788 C   0  0  0  0  0  0  0  0  0  0  0  0
  -36.1981    0.1728   28.3615 C   0  0  0  0  0  0  0  0  0  0  0  0
  -35.5031    1.2721   28.9224 C   0  0  0  0  0  0  0  0  0  0  0  0
  -34.7097    1.2434   30.0358 N   0  0  0  0  0  0  0  0  0  0  0  0
  -34.2698    0.3286   30.9223 C   0  0  0  0  0  0  0  0  0  0  0  0
  -33.3145    0.5400   31.9226 C   0  0  0  0  0  0  0  0  0  0  0  0
  -33.0164   -0.5798   32.7049 C   0  0  0  0  0  0  0  0  0  0  0  0
  -32.0697   -0.1981   33.5925 N   0  0  0  0  0  0  0  0  0  0  0  0
  -31.7393    1.1578   33.4017 N   0  0  0  0  0  0  0  0  0  0  0  0
  -32.4582    1.5803   32.4140 C   0  0  0  0  0  0  0  0  0  0  0  0
  -33.5842   -1.7755   32.5799 N   0  0  0  0  0  0  0  0  0  0  0  0
  -34.4861   -1.8592   31.5969 C   0  0  0  0  0  0  0  0  0  0  0  0
  -35.0957   -3.0247   31.3791 N   0  0  0  0  0  0  0  0  0  0  0  0
  -36.2371   -3.1041   30.4980 C   0  0  0  0  0  0  0  0  0  0  0  0
  -36.3794   -4.4535   29.7398 C   0  0  0  0  0  0  0  0  0  0  0  0
  -35.9556   -5.4749   30.6645 O   0  0  0  0  0  0  0  0  0  0  0  0
  -37.9059   -4.5470   29.4901 C   0  0  0  0  0  0  0  0  0  0  0  0
  -38.4710   -3.8716   30.7327 C   0  0  0  0  0  0  0  0  0  0  0  0
  -37.5175   -3.0452   31.2964 C   0  0  0  0  0  0  0  0  0  0  0  0
  -37.7590   -2.3158   32.4473 C   0  0  0  0  0  0  0  0  0  0  0  0
  -39.0104   -2.4126   33.0435 C   0  0  0  0  0  0  0  0  0  0  0  0
  -39.9776   -3.2386   32.4728 C   0  0  0  0  0  0  0  0  0  0  0  0
  -39.7121   -3.9764   31.3205 C   0  0  0  0  0  0  0  0  0  0  0  0
  -34.8347   -0.8619   30.7757 N   0  0  0  0  0  0  0  0  0  0  0  0
  -35.7118    2.3627   28.2567 N   0  0  0  0  0  0  0  0  0  0  0  0
  1  2  1  0  0  0  0
  2  3  1  0  0  0  0
  3  4  1  0  0  0  0
  4  5  1  0  0  0  0
  4  6  1  0  0  0  0
  4  7  1  0  0  0  0
  3  8  2  0  0  0  0
  8  9  1  0  0  0  0
  9 10  1  0  0  0  0
 10 11  1  0  0  0  0
 11 12  1  0  0  0  0
 12 13  2  0  0  0  0
 13 14  1  0  0  0  0
 14 15  1  0  0  0  0
 12 16  1  0  0  0  0
 15 16  2  0  0  0  0
 13 17  1  0  0  0  0
 17 18  2  0  0  0  0
 18 19  1  0  0  0  0
 19 20  1  0  0  0  0
 20 21  1  0  0  0  0
 21 22  1  0  0  0  0
 21 23  1  0  0  0  0
 23 24  1  0  0  0  0
 20 25  1  0  0  0  0
 24 25  1  0  0  0  0
 25 26  2  0  0  0  0
 26 27  1  0  0  0  0
 27 28  2  0  0  0  0
 24 29  2  0  0  0  0
 28 29  1  0  0  0  0
 11 30  2  0  0  0  0
 18 30  1  0  0  0  0
  2 31  1  0  0  0  0
  9 31  2  0  0  0  0
M  END
$$$$
