7S1X
  PyMOL3.1          3D                             0

 25 26  0  0  0  0  0  0  0  0999 V2000
  155.7580  160.1630  146.6070 N   0  0  0  0  0  0  0  0  0  0  0  0
  156.8010  159.5410  147.3860 C   0  0  0  0  0  0  0  0  0  0  0  0
  156.5440  159.1820  148.6960 C   0  0  0  0  0  0  0  0  0  0  0  0
  155.3100  159.4170  149.2390 O   0  0  0  0  0  0  0  0  0  0  0  0
  158.0520  159.3000  146.8350 C   0  0  0  0  0  0  0  0  0  0  0  0
  159.0420  158.6980  147.5990 C   0  0  0  0  0  0  0  0  0  0  0  0
  158.7810  158.3410  148.9130 C   0  0  0  0  0  0  0  0  0  0  0  0
  157.0020  159.5330  152.0530 N   0  0  0  0  0  0  0  0  0  0  0  0
  154.9510  159.8240  144.2980 C   0  0  0  0  0  0  0  0  0  0  0  0
  154.2770  157.6770  143.2140 C   0  0  0  0  0  0  0  0  0  0  0  0
  157.5270  158.5780  149.4560 C   0  0  0  0  0  0  0  0  0  0  0  0
  155.9770  157.3550  151.1420 O   0  0  0  0  0  0  0  0  0  0  0  0
  157.1840  158.1280  151.1050 S   0  0  0  0  0  0  0  0  0  0  0  0
  158.2650  157.3410  151.6200 O   0  0  0  0  0  0  0  0  0  0  0  0
  160.5250  158.3790  145.7260 O   0  0  0  0  0  0  0  0  0  0  0  0
  161.3590  158.2880  147.7690 O   0  0  0  0  0  0  0  0  0  0  0  0
  155.9630  160.4950  145.2140 C   0  0  0  0  0  0  0  0  0  0  0  0
  155.2060  158.3280  144.2130 C   0  0  0  0  0  0  0  0  0  0  0  0
  154.9850  160.6800  149.6600 C   0  0  0  0  0  0  0  0  0  0  0  0
  153.6670  160.9940  149.9570 C   0  0  0  0  0  0  0  0  0  0  0  0
  153.3360  162.2730  150.3840 C   0  0  0  0  0  0  0  0  0  0  0  0
  154.3230  163.2390  150.5170 C   0  0  0  0  0  0  0  0  0  0  0  0
  155.6420  162.9260  150.2210 C   0  0  0  0  0  0  0  0  0  0  0  0
  155.9720  161.6470  149.7940 C   0  0  0  0  0  0  0  0  0  0  0  0
  160.3950  158.4370  147.0120 C   0  0  0  0  0  0  0  0  0  0  0  0
  1  2  1  0  0  0  0
  2  3  1  0  0  0  0
  3  4  1  0  0  0  0
  2  5  2  0  0  0  0
  5  6  1  0  0  0  0
  6  7  2  0  0  0  0
  3 11  2  0  0  0  0
  7 11  1  0  0  0  0
  8 13  1  0  0  0  0
 11 13  1  0  0  0  0
 12 13  2  0  0  0  0
 13 14  2  0  0  0  0
  1 17  1  0  0  0  0
  9 17  1  0  0  0  0
  9 18  1  0  0  0  0
 10 18  1  0  0  0  0
  4 19  1  0  0  0  0
 19 20  1  0  0  0  0
 20 21  2  0  0  0  0
 21 22  1  0  0  0  0
 22 23  2  0  0  0  0
 19 24  2  0  0  0  0
 23 24  1  0  0  0  0
  6 25  1  0  0  0  0
 15 25  2  0  0  0  0
 16 25  1  0  0  0  0
M  END
$$$$
