7S1X
  PyMOL3.1          3D                             0

 25 26  0  0  0  0  0  0  0  0999 V2000
  115.6100  111.1900  146.6070 N   0  0  0  0  0  0  0  0  0  0  0  0
  114.5660  111.8120  147.3860 C   0  0  0  0  0  0  0  0  0  0  0  0
  114.8240  112.1710  148.6960 C   0  0  0  0  0  0  0  0  0  0  0  0
  116.0580  111.9360  149.2390 O   0  0  0  0  0  0  0  0  0  0  0  0
  113.3160  112.0530  146.8350 C   0  0  0  0  0  0  0  0  0  0  0  0
  112.3260  112.6550  147.5990 C   0  0  0  0  0  0  0  0  0  0  0  0
  112.5870  113.0120  148.9130 C   0  0  0  0  0  0  0  0  0  0  0  0
  114.3660  111.8210  152.0530 N   0  0  0  0  0  0  0  0  0  0  0  0
  116.4170  111.5290  144.2980 C   0  0  0  0  0  0  0  0  0  0  0  0
  117.0900  113.6760  143.2140 C   0  0  0  0  0  0  0  0  0  0  0  0
  113.8410  112.7750  149.4570 C   0  0  0  0  0  0  0  0  0  0  0  0
  115.3910  113.9990  151.1420 O   0  0  0  0  0  0  0  0  0  0  0  0
  114.1840  113.2250  151.1050 S   0  0  0  0  0  0  0  0  0  0  0  0
  113.1020  114.0120  151.6200 O   0  0  0  0  0  0  0  0  0  0  0  0
  110.8430  112.9740  145.7260 O   0  0  0  0  0  0  0  0  0  0  0  0
  110.0080  113.0650  147.7690 O   0  0  0  0  0  0  0  0  0  0  0  0
  115.4040  110.8590  145.2140 C   0  0  0  0  0  0  0  0  0  0  0  0
  116.1610  113.0250  144.2130 C   0  0  0  0  0  0  0  0  0  0  0  0
  116.3830  110.6730  149.6600 C   0  0  0  0  0  0  0  0  0  0  0  0
  117.7010  110.3600  149.9570 C   0  0  0  0  0  0  0  0  0  0  0  0
  118.0320  109.0800  150.3840 C   0  0  0  0  0  0  0  0  0  0  0  0
  117.0450  108.1140  150.5170 C   0  0  0  0  0  0  0  0  0  0  0  0
  115.7260  108.4270  150.2210 C   0  0  0  0  0  0  0  0  0  0  0  0
  115.3950  109.7060  149.7940 C   0  0  0  0  0  0  0  0  0  0  0  0
  110.9730  112.9160  147.0120 C   0  0  0  0  0  0  0  0  0  0  0  0
  1  2  1  0  0  0  0
  2  3  4  0  0  0  0
  2  5  4  0  0  0  0
  3  4  1  0  0  0  0
  3 11  4  0  0  0  0
  4 19  1  0  0  0  0
  5  6  4  0  0  0  0
  6  7  4  0  0  0  0
  7 11  4  0  0  0  0
  8 13  1  0  0  0  0
 11 13  1  0  0  0  0
 12 13  2  0  0  0  0
 13 14  2  0  0  0  0
  1 17  1  0  0  0  0
  9 17  1  0  0  0  0
  9 18  1  0  0  0  0
 10 18  1  0  0  0  0
 19 20  4  0  0  0  0
 19 24  4  0  0  0  0
 20 21  4  0  0  0  0
 21 22  4  0  0  0  0
 22 23  4  0  0  0  0
 23 24  4  0  0  0  0
  6 25  1  0  0  0  0
 15 25  4  0  0  0  0
 16 25  4  0  0  0  0
M  END
$$$$
