6UXX
  PyMOL3.1          3D                             0

 26 30  0  0  0  0  0  0  0  0999 V2000
   13.3110  -46.3410  -15.4060 N   0  0  0  0  0  0  0  0  0  0  0  0
   13.1960  -44.2170  -16.7310 C   0  0  0  0  0  0  0  0  0  0  0  0
    8.6440  -47.6730  -19.5400 O   0  0  0  0  0  0  0  0  0  0  0  0
   12.8740  -43.6100  -18.1330 C   0  0  0  0  0  0  0  0  0  0  0  0
   15.1840  -47.0860  -16.3240 N   0  0  0  0  0  0  0  0  0  0  0  0
   15.0990  -46.1550  -18.4330 O   0  0  0  0  0  0  0  0  0  0  0  0
   12.8170  -42.0600  -18.0800 C   0  0  0  0  0  0  0  0  0  0  0  0
   14.7100  -47.6080  -14.0480 N   0  0  0  0  0  0  0  0  0  0  0  0
   14.1830  -41.5140  -17.6130 C   0  0  0  0  0  0  0  0  0  0  0  0
   14.5040  -42.0650  -16.2060 C   0  0  0  0  0  0  0  0  0  0  0  0
   14.5580  -43.6140  -16.2610 C   0  0  0  0  0  0  0  0  0  0  0  0
   13.4060  -41.6260  -15.2150 C   0  0  0  0  0  0  0  0  0  0  0  0
   12.0400  -42.1710  -15.6830 C   0  0  0  0  0  0  0  0  0  0  0  0
   12.0950  -43.7190  -15.7390 C   0  0  0  0  0  0  0  0  0  0  0  0
   11.7170  -41.6210  -17.0880 C   0  0  0  0  0  0  0  0  0  0  0  0
   13.2710  -45.8170  -16.7880 C   0  0  0  0  0  0  0  0  0  0  0  0
   12.0760  -46.4570  -17.5260 C   0  0  0  0  0  0  0  0  0  0  0  0
   12.1700  -46.8270  -18.8690 C   0  0  0  0  0  0  0  0  0  0  0  0
   11.0660  -47.2940  -19.5640 C   0  0  0  0  0  0  0  0  0  0  0  0
    9.8360  -47.3990  -18.9160 C   0  0  0  0  0  0  0  0  0  0  0  0
    9.7350  -47.0840  -17.5680 C   0  0  0  0  0  0  0  0  0  0  0  0
   10.8470  -46.6170  -16.8850 C   0  0  0  0  0  0  0  0  0  0  0  0
    8.6460  -47.8010  -20.9600 C   0  0  0  0  0  0  0  0  0  0  0  0
   14.3790  -47.0230  -15.2090 C   0  0  0  0  0  0  0  0  0  0  0  0
   14.6120  -46.3530  -17.3350 C   0  0  0  0  0  0  0  0  0  0  0  0
   16.4750  -47.7800  -16.4430 C   0  0  0  0  0  0  0  0  0  0  0  0
  2  4  1  0  0  0  0
  4  7  1  0  0  0  0
  7  9  1  0  0  0  0
  9 10  1  0  0  0  0
  2 11  1  0  0  0  0
 10 11  1  0  0  0  0
 10 12  1  0  0  0  0
 12 13  1  0  0  0  0
  2 14  1  0  0  0  0
 13 14  1  0  0  0  0
  7 15  1  0  0  0  0
 13 15  1  0  0  0  0
  1 16  1  0  0  0  0
  2 16  1  0  0  0  0
 16 17  1  0  0  0  0
 17 18  2  0  0  0  0
 18 19  1  0  0  0  0
  3 20  1  0  0  0  0
 19 20  2  0  0  0  0
 20 21  1  0  0  0  0
 17 22  1  0  0  0  0
 21 22  2  0  0  0  0
  3 23  1  0  0  0  0
  1 24  2  0  0  0  0
  5 24  1  0  0  0  0
  8 24  1  0  0  0  0
  5 25  1  0  0  0  0
  6 25  2  0  0  0  0
 16 25  1  0  0  0  0
  5 26  1  0  0  0  0
M  END
$$$$
