7NI4
  PyMOL3.1          3D                             0

 33 37  0  0  0  0  0  0  0  0999 V2000
  192.3250  244.2380  238.0390 C   0  0  0  0  0  0  0  0  0  0  0  0
  192.7550  243.0460  237.3850 O   0  0  0  0  0  0  0  0  0  0  0  0
  194.4040  242.1520  234.3130 C   0  0  0  0  0  0  0  0  0  0  0  0
  194.8740  243.3680  233.8910 C   0  0  0  0  0  0  0  0  0  0  0  0
  194.6610  244.4830  234.5950 N   0  0  0  0  0  0  0  0  0  0  0  0
  193.9690  244.3780  235.7350 C   0  0  0  0  0  0  0  0  0  0  0  0
  193.4650  243.1880  236.2250 C   0  0  0  0  0  0  0  0  0  0  0  0
  193.6820  242.0200  235.4950 C   0  0  0  0  0  0  0  0  0  0  0  0
  195.0450  240.0760  237.2440 O   0  0  0  0  0  0  0  0  0  0  0  0
  193.4910  237.6570  237.8200 C   0  0  0  0  0  0  0  0  0  0  0  0
  193.1180  238.8050  236.9990 N   0  0  0  0  0  0  0  0  0  0  0  0
  193.9290  239.8960  236.7930 C   0  0  0  0  0  0  0  0  0  0  0  0
  193.2030  240.7530  235.9610 N   0  0  0  0  0  0  0  0  0  0  0  0
  186.5530  240.7700  232.2940 C   0  0  0  0  0  0  0  0  0  0  0  0
  187.5260  241.7410  232.6700 O   0  0  0  0  0  0  0  0  0  0  0  0
  191.0610  245.0130  234.3200 C   0  0  0  0  0  0  0  0  0  0  0  0
  188.8490  245.8010  230.0840 C   0  0  0  0  0  0  0  0  0  0  0  0
  189.0430  243.7550  231.5250 C   0  0  0  0  0  0  0  0  0  0  0  0
  189.2860  245.0440  231.2490 N   0  0  0  0  0  0  0  0  0  0  0  0
  190.0310  245.6590  232.2010 N   0  0  0  0  0  0  0  0  0  0  0  0
  190.2560  244.7130  233.0980 C   0  0  0  0  0  0  0  0  0  0  0  0
  189.6520  243.4810  232.7200 C   0  0  0  0  0  0  0  0  0  0  0  0
  190.7950  241.8500  234.1770 C   0  0  0  0  0  0  0  0  0  0  0  0
  189.6790  242.1880  233.4530 C   0  0  0  0  0  0  0  0  0  0  0  0
  188.5860  241.3110  233.4170 C   0  0  0  0  0  0  0  0  0  0  0  0
  188.6110  240.1240  234.0880 C   0  0  0  0  0  0  0  0  0  0  0  0
  189.7480  239.7510  234.8400 C   0  0  0  0  0  0  0  0  0  0  0  0
  190.8590  240.6300  234.8870 C   0  0  0  0  0  0  0  0  0  0  0  0
  191.9670  240.1790  235.6700 C   0  0  0  0  0  0  0  0  0  0  0  0
  191.9160  238.9680  236.3170 C   0  0  0  0  0  0  0  0  0  0  0  0
  190.7730  238.1920  236.1980 C   0  0  0  0  0  0  0  0  0  0  0  0
  189.7160  238.5400  235.4960 N   0  0  0  0  0  0  0  0  0  0  0  0
  194.6450  241.0510  233.5650 F   0  0  0  0  0  0  0  0  0  0  0  0
  1  2  1  0  0  0  0
  3  4  2  0  0  0  0
  4  5  1  0  0  0  0
  5  6  2  0  0  0  0
  2  7  1  0  0  0  0
  6  7  1  0  0  0  0
  3  8  1  0  0  0  0
  7  8  2  0  0  0  0
 10 11  1  0  0  0  0
  9 12  2  0  0  0  0
 11 12  1  0  0  0  0
  8 13  1  0  0  0  0
 12 13  1  0  0  0  0
 14 15  1  0  0  0  0
 17 19  1  0  0  0  0
 18 19  1  0  0  0  0
 19 20  1  0  0  0  0
 16 21  1  0  0  0  0
 20 21  2  0  0  0  0
 18 22  2  0  0  0  0
 21 22  1  0  0  0  0
 22 24  1  0  0  0  0
 23 24  1  0  0  0  0
 15 25  1  0  0  0  0
 24 25  2  0  0  0  0
 25 26  1  0  0  0  0
 26 27  2  0  0  0  0
 23 28  2  0  0  0  0
 27 28  1  0  0  0  0
 13 29  1  0  0  0  0
 28 29  1  0  0  0  0
 11 30  1  0  0  0  0
 29 30  2  0  0  0  0
 30 31  1  0  0  0  0
 27 32  1  0  0  0  0
 31 32  2  0  0  0  0
  3 33  1  0  0  0  0
M  END
$$$$
