7EO4
  PyMOL3.1          3D                             0

 37 40  0  0  0  0  0  0  0  0999 V2000
  127.0220  142.1980  172.4640 C   0  0  0  0  0  0  0  0  0  0  0  0
  126.8570  140.6580  172.3950 C   0  0  0  0  0  0  0  0  0  0  0  0
  126.9570  140.0200  170.9720 C   0  0  0  0  0  0  0  0  0  0  0  0
  125.8070  139.9490  170.1380 C   0  0  0  0  0  0  0  0  0  0  0  0
  125.9610  139.3590  168.8550 C   0  0  0  0  0  0  0  0  0  0  0  0
  127.2170  138.8460  168.4010 C   0  0  0  0  0  0  0  0  0  0  0  0
  128.3800  138.8970  169.2070 C   0  0  0  0  0  0  0  0  0  0  0  0
  128.2080  139.4950  170.4940 C   0  0  0  0  0  0  0  0  0  0  0  0
  129.7990  138.3130  168.6820 C   0  0  0  0  0  0  0  0  0  0  0  0
  130.1980  138.6000  167.4540 N   0  0  0  0  0  0  0  0  0  0  0  0
  131.4340  138.0790  167.0270 O   0  0  0  0  0  0  0  0  0  0  0  0
  131.6160  138.1420  165.5680 C   0  0  0  0  0  0  0  0  0  0  0  0
  132.8910  137.3250  165.1020 C   0  0  0  0  0  0  0  0  0  0  0  0
  133.8560  136.9060  166.0440 C   0  0  0  0  0  0  0  0  0  0  0  0
  135.0090  136.1700  165.6710 C   0  0  0  0  0  0  0  0  0  0  0  0
  135.2550  135.8140  164.3110 C   0  0  0  0  0  0  0  0  0  0  0  0
  134.2730  136.2360  163.3920 C   0  0  0  0  0  0  0  0  0  0  0  0
  133.1180  136.9690  163.7670 C   0  0  0  0  0  0  0  0  0  0  0  0
  136.4910  134.9960  163.7760 C   0  0  0  0  0  0  0  0  0  0  0  0
  136.1270  133.7200  162.9090 C   0  0  0  0  0  0  0  0  0  0  0  0
  136.0480  133.9260  161.3900 C   0  0  0  0  0  0  0  0  0  0  0  0
  137.1650  134.8070  160.8400 C   0  0  0  0  0  0  0  0  0  0  0  0
  137.2090  136.1450  161.5630 C   0  0  0  0  0  0  0  0  0  0  0  0
  137.4900  135.9640  163.0550 C   0  0  0  0  0  0  0  0  0  0  0  0
  135.9470  135.8090  166.7910 C   0  0  0  0  0  0  0  0  0  0  0  0
  130.6410  137.4430  169.6180 C   0  0  0  0  0  0  0  0  0  0  0  0
  124.4090  140.5120  170.5960 C   0  0  0  0  0  0  0  0  0  0  0  0
  123.7180  139.6760  171.6320 N   0  0  0  0  0  0  0  0  0  0  0  0
  123.4830  140.4670  172.9280 C   0  0  0  0  0  0  0  0  0  0  0  0
  121.9960  140.0650  172.9270 C   0  0  0  0  0  0  0  0  0  0  0  0
  122.1850  139.6520  171.4530 C   0  0  0  0  0  0  0  0  0  0  0  0
  121.0090  141.2550  173.1380 C   0  0  0  0  0  0  0  0  0  0  0  0
  119.9060  141.0650  173.7490 O   0  0  0  0  0  0  0  0  0  0  0  0
  121.3020  142.4110  172.7030 O   0  0  0  0  0  0  0  0  0  0  0  0
  136.9620  134.8440  166.6480 F   0  0  0  0  0  0  0  0  0  0  0  0
  135.3940  135.3010  167.9600 F   0  0  0  0  0  0  0  0  0  0  0  0
  136.7090  136.8390  167.3320 F   0  0  0  0  0  0  0  0  0  0  0  0
  1  2  1  0  0  0  0
  2  3  1  0  0  0  0
  3  4  2  0  0  0  0
  4  5  1  0  0  0  0
  5  6  2  0  0  0  0
  6  7  1  0  0  0  0
  3  8  1  0  0  0  0
  7  8  2  0  0  0  0
  7  9  1  0  0  0  0
  9 10  2  0  0  0  0
 10 11  1  0  0  0  0
 11 12  1  0  0  0  0
 12 13  1  0  0  0  0
 13 14  1  0  0  0  0
 14 15  2  0  0  0  0
 15 16  1  0  0  0  0
 16 17  2  0  0  0  0
 13 18  2  0  0  0  0
 17 18  1  0  0  0  0
 16 19  1  0  0  0  0
 19 20  1  0  0  0  0
 20 21  1  0  0  0  0
 21 22  1  0  0  0  0
 22 23  1  0  0  0  0
 19 24  1  0  0  0  0
 23 24  1  0  0  0  0
 15 25  1  0  0  0  0
  9 26  1  0  0  0  0
  4 27  1  0  0  0  0
 27 28  1  0  0  0  0
 28 29  1  0  0  0  0
 29 30  1  0  0  0  0
 28 31  1  0  0  0  0
 30 31  1  0  0  0  0
 30 32  1  0  0  0  0
 32 33  1  0  0  0  0
 32 34  2  0  0  0  0
 25 35  1  0  0  0  0
 25 36  1  0  0  0  0
 25 37  1  0  0  0  0
M  END
$$$$
