6LUR
  PyMOL3.1          3D                             0

168184  0  0  0  0  0  0  0  0999 V2000
   49.4380  -16.9750  -94.0080 C   0  0  0  0  0  0  0  0  0  0  0  0
   50.4640  -16.2660  -93.3900 N   0  0  0  0  0  0  0  0  0  0  0  0
   50.8560  -14.6470  -90.1810 O   0  0  0  0  0  0  0  0  0  0  0  0
   50.1690  -16.0290  -91.9890 C   0  0  0  0  0  0  0  0  0  0  0  0
   52.3300  -14.9160  -91.8740 N   0  0  0  0  0  0  0  0  0  0  0  0
   51.1500  -15.1330  -91.2940 C   0  0  0  0  0  0  0  0  0  0  0  0
   47.2770  -10.0510  -92.2450 N   0  0  0  0  0  0  0  0  0  0  0  0
   52.7790  -15.4300  -93.1640 C   0  0  0  0  0  0  0  0  0  0  0  0
   51.8850  -16.5640  -93.6240 C   0  0  0  0  0  0  0  0  0  0  0  0
   48.4780  -13.8850  -93.8830 C   0  0  0  0  0  0  0  0  0  0  0  0
   47.7600  -15.0480  -93.5740 C   0  0  0  0  0  0  0  0  0  0  0  0
   46.6980  -14.9320  -92.6760 C   0  0  0  0  0  0  0  0  0  0  0  0
   46.3550  -13.7070  -92.1240 C   0  0  0  0  0  0  0  0  0  0  0  0
   47.0560  -12.5530  -92.4430 C   0  0  0  0  0  0  0  0  0  0  0  0
   48.1270  -12.6550  -93.3300 C   0  0  0  0  0  0  0  0  0  0  0  0
   48.1050  -16.3860  -94.1310 C   0  0  0  0  0  0  0  0  0  0  0  0
   47.1070  -17.1460  -94.7400 C   0  0  0  0  0  0  0  0  0  0  0  0
   47.3740  -18.4180  -95.2230 C   0  0  0  0  0  0  0  0  0  0  0  0
   48.6410  -18.9570  -95.1220 C   0  0  0  0  0  0  0  0  0  0  0  0
   49.6610  -18.2530  -94.5060 C   0  0  0  0  0  0  0  0  0  0  0  0
   46.6180  -11.2760  -91.7610 C   0  0  0  0  0  0  0  0  0  0  0  0
   27.0640  -13.4100  -87.6720 C   0  0  0  0  0  0  0  0  0  0  0  0
   27.1150  -12.0750  -87.3480 N   0  0  0  0  0  0  0  0  0  0  0  0
   29.5450   -9.4600  -87.9530 O   0  0  0  0  0  0  0  0  0  0  0  0
   28.4560  -11.5280  -87.4530 C   0  0  0  0  0  0  0  0  0  0  0  0
   27.4660   -9.3580  -87.1110 N   0  0  0  0  0  0  0  0  0  0  0  0
   28.5190  -10.0340  -87.5400 C   0  0  0  0  0  0  0  0  0  0  0  0
   22.2050  -13.5930  -81.7270 N   0  0  0  0  0  0  0  0  0  0  0  0
   26.0740   -9.7750  -87.2310 C   0  0  0  0  0  0  0  0  0  0  0  0
   25.9060  -11.2730  -87.0760 C   0  0  0  0  0  0  0  0  0  0  0  0
   23.8470  -14.1820  -85.7920 C   0  0  0  0  0  0  0  0  0  0  0  0
   25.1900  -13.8100  -85.9090 C   0  0  0  0  0  0  0  0  0  0  0  0
   25.7390  -13.0630  -84.8630 C   0  0  0  0  0  0  0  0  0  0  0  0
   24.9700  -12.6420  -83.7880 C   0  0  0  0  0  0  0  0  0  0  0  0
   23.6330  -12.9980  -83.6870 C   0  0  0  0  0  0  0  0  0  0  0  0
   23.0770  -13.7650  -84.7100 C   0  0  0  0  0  0  0  0  0  0  0  0
   26.0620  -14.2810  -87.0250 C   0  0  0  0  0  0  0  0  0  0  0  0
   26.0340  -15.6230  -87.3980 C   0  0  0  0  0  0  0  0  0  0  0  0
   26.8970  -16.1050  -88.3740 C   0  0  0  0  0  0  0  0  0  0  0  0
   27.8160  -15.2760  -88.9940 C   0  0  0  0  0  0  0  0  0  0  0  0
   27.8950  -13.9340  -88.6630 C   0  0  0  0  0  0  0  0  0  0  0  0
   22.8350  -12.5090  -82.4950 C   0  0  0  0  0  0  0  0  0  0  0  0
   35.3660  -45.2380  -99.3620 C   0  0  0  0  0  0  0  0  0  0  0  0
   34.1200  -45.0100  -98.8220 N   0  0  0  0  0  0  0  0  0  0  0  0
   30.7660  -44.4680 -100.1100 O   0  0  0  0  0  0  0  0  0  0  0  0
   33.0940  -44.8560  -99.8360 C   0  0  0  0  0  0  0  0  0  0  0  0
   31.5290  -44.5900  -98.0060 N   0  0  0  0  0  0  0  0  0  0  0  0
   31.7090  -44.6370  -99.3150 C   0  0  0  0  0  0  0  0  0  0  0  0
   35.5680  -42.0760  -92.8040 N   0  0  0  0  0  0  0  0  0  0  0  0
   32.3960  -45.1800  -96.9980 C   0  0  0  0  0  0  0  0  0  0  0  0
   33.8560  -45.0440  -97.3740 C   0  0  0  0  0  0  0  0  0  0  0  0
   37.1180  -44.1960  -96.3320 C   0  0  0  0  0  0  0  0  0  0  0  0
   36.4510  -43.8290  -97.4940 C   0  0  0  0  0  0  0  0  0  0  0  0
   35.7290  -42.6290  -97.4720 C   0  0  0  0  0  0  0  0  0  0  0  0
   35.6530  -41.8410  -96.3290 C   0  0  0  0  0  0  0  0  0  0  0  0
   36.3330  -42.2240  -95.1760 C   0  0  0  0  0  0  0  0  0  0  0  0
   37.0590  -43.4070  -95.1960 C   0  0  0  0  0  0  0  0  0  0  0  0
   36.5430  -44.6710  -98.7200 C   0  0  0  0  0  0  0  0  0  0  0  0
   37.7950  -44.9480  -99.2700 C   0  0  0  0  0  0  0  0  0  0  0  0
   37.9060  -45.6950 -100.4280 C   0  0  0  0  0  0  0  0  0  0  0  0
   36.7770  -46.2170 -101.0410 C   0  0  0  0  0  0  0  0  0  0  0  0
   35.5170  -45.9980 -100.5130 C   0  0  0  0  0  0  0  0  0  0  0  0
   36.3110  -41.4220  -93.8980 C   0  0  0  0  0  0  0  0  0  0  0  0
   26.3850  -34.4720  -63.2190 C   0  0  0  0  0  0  0  0  0  0  0  0
   26.6670  -33.6020  -62.1760 N   0  0  0  0  0  0  0  0  0  0  0  0
   24.6530  -31.9250  -59.6380 O   0  0  0  0  0  0  0  0  0  0  0  0
   25.4530  -33.1240  -61.5330 C   0  0  0  0  0  0  0  0  0  0  0  0
   26.8830  -31.8900  -60.0040 N   0  0  0  0  0  0  0  0  0  0  0  0
   25.6440  -32.2660  -60.3180 C   0  0  0  0  0  0  0  0  0  0  0  0
   33.4310  -36.4040  -61.3580 N   0  0  0  0  0  0  0  0  0  0  0  0
   28.0600  -31.9720  -60.8620 C   0  0  0  0  0  0  0  0  0  0  0  0
   28.0180  -33.2230  -61.7210 C   0  0  0  0  0  0  0  0  0  0  0  0
   28.5110  -36.2250  -61.4160 C   0  0  0  0  0  0  0  0  0  0  0  0
   28.5140  -35.9260  -62.7760 C   0  0  0  0  0  0  0  0  0  0  0  0
   29.7480  -35.9050  -63.4340 C   0  0  0  0  0  0  0  0  0  0  0  0
   30.9270  -36.1670  -62.7470 C   0  0  0  0  0  0  0  0  0  0  0  0
   30.9210  -36.4320  -61.3860 C   0  0  0  0  0  0  0  0  0  0  0  0
   29.6980  -36.4550  -60.7290 C   0  0  0  0  0  0  0  0  0  0  0  0
   27.2490  -35.6500  -63.5130 C   0  0  0  0  0  0  0  0  0  0  0  0
   26.9020  -36.4720  -64.5850 C   0  0  0  0  0  0  0  0  0  0  0  0
   25.7430  -36.2390  -65.3030 C   0  0  0  0  0  0  0  0  0  0  0  0
   24.9250  -35.1590  -65.0040 C   0  0  0  0  0  0  0  0  0  0  0  0
   25.2230  -34.2920  -63.9670 C   0  0  0  0  0  0  0  0  0  0  0  0
   32.1950  -36.6980  -60.6120 C   0  0  0  0  0  0  0  0  0  0  0  0
   14.6380  -36.9370  -92.6800 C   0  0  0  0  0  0  0  0  0  0  0  0
   15.7780  -37.3680  -93.3530 N   0  0  0  0  0  0  0  0  0  0  0  0
   17.5350  -40.4670  -93.9910 O   0  0  0  0  0  0  0  0  0  0  0  0
   15.8840  -38.8090  -93.5300 C   0  0  0  0  0  0  0  0  0  0  0  0
   17.9080  -38.4040  -94.8110 N   0  0  0  0  0  0  0  0  0  0  0  0
   17.1730  -39.2820  -94.1360 C   0  0  0  0  0  0  0  0  0  0  0  0
   20.8330  -33.7350  -90.6760 N   0  0  0  0  0  0  0  0  0  0  0  0
   17.6130  -36.9860  -94.9740 C   0  0  0  0  0  0  0  0  0  0  0  0
   16.8800  -36.4770  -93.7520 C   0  0  0  0  0  0  0  0  0  0  0  0
   16.3520  -34.1840  -90.9660 C   0  0  0  0  0  0  0  0  0  0  0  0
   16.0860  -35.5560  -91.0060 C   0  0  0  0  0  0  0  0  0  0  0  0
   17.0990  -36.4230  -90.5850 C   0  0  0  0  0  0  0  0  0  0  0  0
   18.3180  -35.9290  -90.1400 C   0  0  0  0  0  0  0  0  0  0  0  0
   18.5640  -34.5590  -90.0990 C   0  0  0  0  0  0  0  0  0  0  0  0
   17.5700  -33.6900  -90.5230 C   0  0  0  0  0  0  0  0  0  0  0  0
   14.7680  -36.0530  -91.5000 C   0  0  0  0  0  0  0  0  0  0  0  0
   13.6000  -35.6260  -90.8700 C   0  0  0  0  0  0  0  0  0  0  0  0
   12.3610  -36.0510  -91.3200 C   0  0  0  0  0  0  0  0  0  0  0  0
   12.2470  -36.8800  -92.4240 C   0  0  0  0  0  0  0  0  0  0  0  0
   13.3680  -37.3270  -93.0990 C   0  0  0  0  0  0  0  0  0  0  0  0
   19.8680  -33.9890  -89.5970 C   0  0  0  0  0  0  0  0  0  0  0  0
   12.7180  -65.5210  -62.8060 C   0  0  0  0  0  0  0  0  0  0  0  0
   12.4160  -66.3840  -61.7450 N   0  0  0  0  0  0  0  0  0  0  0  0
    9.6080  -68.3040  -60.5900 O   0  0  0  0  0  0  0  0  0  0  0  0
   11.2850  -67.2710  -61.9470 C   0  0  0  0  0  0  0  0  0  0  0  0
   11.6580  -68.1020  -59.6990 N   0  0  0  0  0  0  0  0  0  0  0  0
   10.7930  -67.9230  -60.6870 C   0  0  0  0  0  0  0  0  0  0  0  0
    6.8400  -62.2630  -59.7530 N   0  0  0  0  0  0  0  0  0  0  0  0
   12.9640  -67.4710  -59.5800 C   0  0  0  0  0  0  0  0  0  0  0  0
   13.4660  -67.0170  -60.9340 C   0  0  0  0  0  0  0  0  0  0  0  0
   10.4800  -64.0690  -61.1390 C   0  0  0  0  0  0  0  0  0  0  0  0
   10.4860  -64.2810  -62.5120 C   0  0  0  0  0  0  0  0  0  0  0  0
    9.2640  -64.2330  -63.1860 C   0  0  0  0  0  0  0  0  0  0  0  0
    8.0790  -64.0150  -62.4950 C   0  0  0  0  0  0  0  0  0  0  0  0
    8.0840  -63.8300  -61.1230 C   0  0  0  0  0  0  0  0  0  0  0  0
    9.2950  -63.8610  -60.4530 C   0  0  0  0  0  0  0  0  0  0  0  0
   11.7700  -64.4930  -63.2230 C   0  0  0  0  0  0  0  0  0  0  0  0
   12.1100  -63.6470  -64.2760 C   0  0  0  0  0  0  0  0  0  0  0  0
   13.3220  -63.7910  -64.9310 C   0  0  0  0  0  0  0  0  0  0  0  0
   14.2100  -64.7760  -64.5440 C   0  0  0  0  0  0  0  0  0  0  0  0
   13.9180  -65.6280  -63.4900 C   0  0  0  0  0  0  0  0  0  0  0  0
    6.8120  -63.5970  -60.3490 C   0  0  0  0  0  0  0  0  0  0  0  0
   10.4690  -85.7060  -89.0590 C   0  0  0  0  0  0  0  0  0  0  0  0
   11.3840  -86.2310  -88.1170 N   0  0  0  0  0  0  0  0  0  0  0  0
   14.7340  -85.3540  -86.9850 O   0  0  0  0  0  0  0  0  0  0  0  0
   12.7910  -85.8930  -88.2740 C   0  0  0  0  0  0  0  0  0  0  0  0
   13.2650  -86.7690  -86.0560 N   0  0  0  0  0  0  0  0  0  0  0  0
   13.6650  -85.9890  -87.0520 C   0  0  0  0  0  0  0  0  0  0  0  0
    8.4670  -93.0320  -88.8780 N   0  0  0  0  0  0  0  0  0  0  0  0
   11.9470  -87.3780  -85.9780 C   0  0  0  0  0  0  0  0  0  0  0  0
   10.9740  -86.4880  -86.7220 C   0  0  0  0  0  0  0  0  0  0  0  0
    7.9730  -88.6190  -88.9970 C   0  0  0  0  0  0  0  0  0  0  0  0
    9.2070  -87.9730  -89.1130 C   0  0  0  0  0  0  0  0  0  0  0  0
   10.3520  -88.7190  -88.8360 C   0  0  0  0  0  0  0  0  0  0  0  0
   10.2720  -90.0390  -88.4220 C   0  0  0  0  0  0  0  0  0  0  0  0
    9.0470  -90.6770  -88.3080 C   0  0  0  0  0  0  0  0  0  0  0  0
    7.8970  -89.9480  -88.5950 C   0  0  0  0  0  0  0  0  0  0  0  0
    9.3300  -86.5490  -89.5360 C   0  0  0  0  0  0  0  0  0  0  0  0
    8.4090  -85.9910  -90.4250 C   0  0  0  0  0  0  0  0  0  0  0  0
    8.5330  -84.6660  -90.8200 C   0  0  0  0  0  0  0  0  0  0  0  0
    9.5890  -83.8840  -90.3770 C   0  0  0  0  0  0  0  0  0  0  0  0
   10.5380  -84.3800  -89.4920 C   0  0  0  0  0  0  0  0  0  0  0  0
    9.0260  -92.1260  -87.8660 C   0  0  0  0  0  0  0  0  0  0  0  0
   40.0530  -13.7940 -126.0220 C   0  0  0  0  0  0  0  0  0  0  0  0
   40.3920  -12.7970 -126.9690 N   0  0  0  0  0  0  0  0  0  0  0  0
   41.6670  -12.5960 -130.3760 O   0  0  0  0  0  0  0  0  0  0  0  0
   40.7320  -13.2930 -128.2950 C   0  0  0  0  0  0  0  0  0  0  0  0
   41.2680  -10.9840 -128.8510 N   0  0  0  0  0  0  0  0  0  0  0  0
   41.2650  -12.2560 -129.2440 C   0  0  0  0  0  0  0  0  0  0  0  0
   46.1160  -15.8700 -129.6800 N   0  0  0  0  0  0  0  0  0  0  0  0
   40.5910  -10.4410 -127.6770 C   0  0  0  0  0  0  0  0  0  0  0  0
   39.7160  -11.4950 -127.0310 C   0  0  0  0  0  0  0  0  0  0  0  0
   43.2500  -14.1910 -126.3980 C   0  0  0  0  0  0  0  0  0  0  0  0
   42.2670  -15.1840 -126.4240 C   0  0  0  0  0  0  0  0  0  0  0  0
   42.5970  -16.3980 -127.0440 C   0  0  0  0  0  0  0  0  0  0  0  0
   43.8360  -16.5890 -127.6400 C   0  0  0  0  0  0  0  0  0  0  0  0
   44.8010  -15.5890 -127.6120 C   0  0  0  0  0  0  0  0  0  0  0  0
   44.4930  -14.3920 -126.9870 C   0  0  0  0  0  0  0  0  0  0  0  0
   40.9400  -14.9760 -125.7700 C   0  0  0  0  0  0  0  0  0  0  0  0
   40.5210  -15.9090 -124.8230 C   0  0  0  0  0  0  0  0  0  0  0  0
   39.3110  -15.7680 -124.1630 C   0  0  0  0  0  0  0  0  0  0  0  0
   38.4940  -14.6810 -124.4080 C   0  0  0  0  0  0  0  0  0  0  0  0
   38.8530  -13.7110 -125.3300 C   0  0  0  0  0  0  0  0  0  0  0  0
   46.1680  -15.7630 -128.2270 C   0  0  0  0  0  0  0  0  0  0  0  0
  1  2  1  0  0  0  0
  2  4  1  0  0  0  0
  3  6  2  0  0  0  0
  4  6  1  0  0  0  0
  5  6  1  0  0  0  0
  5  8  1  0  0  0  0
  2  9  1  0  0  0  0
  8  9  1  0  0  0  0
 10 11  2  0  0  0  0
 11 12  1  0  0  0  0
 12 13  2  0  0  0  0
 13 14  1  0  0  0  0
 10 15  1  0  0  0  0
 14 15  2  0  0  0  0
  1 16  1  0  0  0  0
 11 16  1  0  0  0  0
 16 17  2  0  0  0  0
 17 18  1  0  0  0  0
 18 19  2  0  0  0  0
  1 20  2  0  0  0  0
 19 20  1  0  0  0  0
  7 21  1  0  0  0  0
 14 21  1  0  0  0  0
 22 23  1  0  0  0  0
 23 25  1  0  0  0  0
 24 27  2  0  0  0  0
 25 27  1  0  0  0  0
 26 27  1  0  0  0  0
 26 29  1  0  0  0  0
 23 30  1  0  0  0  0
 29 30  1  0  0  0  0
 31 32  2  0  0  0  0
 32 33  1  0  0  0  0
 33 34  2  0  0  0  0
 34 35  1  0  0  0  0
 31 36  1  0  0  0  0
 35 36  2  0  0  0  0
 22 37  1  0  0  0  0
 32 37  1  0  0  0  0
 37 38  2  0  0  0  0
 38 39  1  0  0  0  0
 39 40  2  0  0  0  0
 22 41  2  0  0  0  0
 40 41  1  0  0  0  0
 28 42  1  0  0  0  0
 35 42  1  0  0  0  0
 43 44  1  0  0  0  0
 44 46  1  0  0  0  0
 45 48  2  0  0  0  0
 46 48  1  0  0  0  0
 47 48  1  0  0  0  0
 47 50  1  0  0  0  0
 44 51  1  0  0  0  0
 50 51  1  0  0  0  0
 52 53  2  0  0  0  0
 53 54  1  0  0  0  0
 54 55  2  0  0  0  0
 55 56  1  0  0  0  0
 52 57  1  0  0  0  0
 56 57  2  0  0  0  0
 43 58  1  0  0  0  0
 53 58  1  0  0  0  0
 58 59  2  0  0  0  0
 59 60  1  0  0  0  0
 60 61  2  0  0  0  0
 43 62  2  0  0  0  0
 61 62  1  0  0  0  0
 49 63  1  0  0  0  0
 56 63  1  0  0  0  0
 64 65  1  0  0  0  0
 65 67  1  0  0  0  0
 66 69  2  0  0  0  0
 67 69  1  0  0  0  0
 68 69  1  0  0  0  0
 68 71  1  0  0  0  0
 65 72  1  0  0  0  0
 71 72  1  0  0  0  0
 73 74  2  0  0  0  0
 74 75  1  0  0  0  0
 75 76  2  0  0  0  0
 76 77  1  0  0  0  0
 73 78  1  0  0  0  0
 77 78  2  0  0  0  0
 64 79  1  0  0  0  0
 74 79  1  0  0  0  0
 79 80  2  0  0  0  0
 80 81  1  0  0  0  0
 81 82  2  0  0  0  0
 64 83  2  0  0  0  0
 82 83  1  0  0  0  0
 70 84  1  0  0  0  0
 77 84  1  0  0  0  0
 85 86  1  0  0  0  0
 86 88  1  0  0  0  0
 87 90  2  0  0  0  0
 88 90  1  0  0  0  0
 89 90  1  0  0  0  0
 89 92  1  0  0  0  0
 86 93  1  0  0  0  0
 92 93  1  0  0  0  0
 94 95  2  0  0  0  0
 95 96  1  0  0  0  0
 96 97  2  0  0  0  0
 97 98  1  0  0  0  0
 94 99  1  0  0  0  0
 98 99  2  0  0  0  0
 85100  1  0  0  0  0
 95100  1  0  0  0  0
100101  2  0  0  0  0
101102  1  0  0  0  0
102103  2  0  0  0  0
 85104  2  0  0  0  0
103104  1  0  0  0  0
 91105  1  0  0  0  0
 98105  1  0  0  0  0
106107  1  0  0  0  0
107109  1  0  0  0  0
108111  2  0  0  0  0
109111  1  0  0  0  0
110111  1  0  0  0  0
110113  1  0  0  0  0
107114  1  0  0  0  0
113114  1  0  0  0  0
115116  2  0  0  0  0
116117  1  0  0  0  0
117118  2  0  0  0  0
118119  1  0  0  0  0
115120  1  0  0  0  0
119120  2  0  0  0  0
106121  1  0  0  0  0
116121  1  0  0  0  0
121122  2  0  0  0  0
122123  1  0  0  0  0
123124  2  0  0  0  0
106125  2  0  0  0  0
124125  1  0  0  0  0
112126  1  0  0  0  0
119126  1  0  0  0  0
127128  1  0  0  0  0
128130  1  0  0  0  0
129132  2  0  0  0  0
130132  1  0  0  0  0
131132  1  0  0  0  0
131134  1  0  0  0  0
128135  1  0  0  0  0
134135  1  0  0  0  0
136137  2  0  0  0  0
137138  1  0  0  0  0
138139  2  0  0  0  0
139140  1  0  0  0  0
136141  1  0  0  0  0
140141  2  0  0  0  0
127142  1  0  0  0  0
137142  1  0  0  0  0
142143  2  0  0  0  0
143144  1  0  0  0  0
144145  2  0  0  0  0
127146  2  0  0  0  0
145146  1  0  0  0  0
133147  1  0  0  0  0
140147  1  0  0  0  0
148149  1  0  0  0  0
149151  1  0  0  0  0
150153  2  0  0  0  0
151153  1  0  0  0  0
152153  1  0  0  0  0
152155  1  0  0  0  0
149156  1  0  0  0  0
155156  1  0  0  0  0
157158  2  0  0  0  0
158159  1  0  0  0  0
159160  2  0  0  0  0
160161  1  0  0  0  0
157162  1  0  0  0  0
161162  2  0  0  0  0
148163  1  0  0  0  0
158163  1  0  0  0  0
163164  2  0  0  0  0
164165  1  0  0  0  0
165166  2  0  0  0  0
148167  2  0  0  0  0
166167  1  0  0  0  0
154168  1  0  0  0  0
161168  1  0  0  0  0
M  END
$$$$
