7LPP
  PyMOL3.1          3D                             0

 23 25  0  0  0  0  0  0  0  0999 V2000
    4.4220    4.5930   66.7360 C   0  0  0  0  0  0  0  0  0  0  0  0
    3.8440    4.3040   68.1240 C   0  0  0  0  0  0  0  0  0  0  0  0
    4.5710    4.6180   69.2640 C   0  0  0  0  0  0  0  0  0  0  0  0
    4.0410    4.3540   70.5180 C   0  0  0  0  0  0  0  0  0  0  0  0
    2.7840    3.7790   70.6320 C   0  0  0  0  0  0  0  0  0  0  0  0
    2.0560    3.4670   69.4950 C   0  0  0  0  0  0  0  0  0  0  0  0
    0.7850    2.8860   69.5950 O   0  0  0  0  0  0  0  0  0  0  0  0
    0.1130    3.1130   70.8010 C   0  0  0  0  0  0  0  0  0  0  0  0
    2.5880    3.7320   68.2420 C   0  0  0  0  0  0  0  0  0  0  0  0
    3.6140    4.4240   65.3400 S   0  0  0  0  0  0  0  0  0  0  0  0
    4.7500    4.8740   64.3120 C   0  0  0  0  0  0  0  0  0  0  0  0
    5.9350    5.2130   65.0280 C   0  0  0  0  0  0  0  0  0  0  0  0
    5.7190    5.0400   66.4800 N   0  0  0  0  0  0  0  0  0  0  0  0
    4.5730    4.9270   62.7910 C   0  0  0  0  0  0  0  0  0  0  0  0
    5.0310    5.9470   62.3570 N   0  0  0  0  0  0  0  0  0  0  0  0
    4.2870    7.0840   62.8240 C   0  0  0  0  0  0  0  0  0  0  0  0
    3.1380    7.4760   61.9050 C   0  0  0  0  0  0  0  0  0  0  0  0
    3.6000    7.8360   60.5600 C   0  0  0  0  0  0  0  0  0  0  0  0
    4.8440    7.2130   60.1820 C   0  0  0  0  0  0  0  0  0  0  0  0
    5.1570    5.8940   60.9030 C   0  0  0  0  0  0  0  0  0  0  0  0
    3.7790    9.3510   60.4720 C   0  0  0  0  0  0  0  0  0  0  0  0
    4.2200    9.6610   59.1780 O   0  0  0  0  0  0  0  0  0  0  0  0
    2.5410    7.4230   59.5890 O   0  0  0  0  0  0  0  0  0  0  0  0
  1  2  1  0  0  0  0
  2  3  1  0  0  0  0
  3  4  2  0  0  0  0
  4  5  1  0  0  0  0
  5  6  2  0  0  0  0
  6  7  1  0  0  0  0
  7  8  1  0  0  0  0
  2  9  2  0  0  0  0
  6  9  1  0  0  0  0
  1 10  1  0  0  0  0
 10 11  1  0  0  0  0
 11 12  2  0  0  0  0
  1 13  2  0  0  0  0
 12 13  1  0  0  0  0
 11 14  1  0  0  0  0
 14 15  1  0  0  0  0
 15 16  1  0  0  0  0
 16 17  1  0  0  0  0
 17 18  1  0  0  0  0
 18 19  1  0  0  0  0
 15 20  1  0  0  0  0
 19 20  1  0  0  0  0
 18 21  1  0  0  0  0
 21 22  1  0  0  0  0
 18 23  1  0  0  0  0
M  END
$$$$
