7LPP
  PyMOL3.1          3D                             0

 23 25  0  0  0  0  0  0  0  0999 V2000
   65.4300   -8.4210   72.8040 C   0  0  0  0  0  0  0  0  0  0  0  0
   66.3800   -9.0360   71.7730 C   0  0  0  0  0  0  0  0  0  0  0  0
   65.9160  -10.0140   70.9070 C   0  0  0  0  0  0  0  0  0  0  0  0
   66.7680  -10.5730   69.9680 C   0  0  0  0  0  0  0  0  0  0  0  0
   68.0840  -10.1490   69.8930 C   0  0  0  0  0  0  0  0  0  0  0  0
   68.5500   -9.1680   70.7520 C   0  0  0  0  0  0  0  0  0  0  0  0
   69.8800   -8.7340   70.6830 O   0  0  0  0  0  0  0  0  0  0  0  0
   70.4630   -8.8000   69.4140 C   0  0  0  0  0  0  0  0  0  0  0  0
   67.6960   -8.6100   71.6910 C   0  0  0  0  0  0  0  0  0  0  0  0
   65.8550   -7.4100   74.0030 S   0  0  0  0  0  0  0  0  0  0  0  0
   64.4180   -7.1650   74.6570 C   0  0  0  0  0  0  0  0  0  0  0  0
   63.4290   -7.9050   73.9490 C   0  0  0  0  0  0  0  0  0  0  0  0
   64.0540   -8.6520   72.8390 N   0  0  0  0  0  0  0  0  0  0  0  0
   64.1330   -6.2750   75.8670 C   0  0  0  0  0  0  0  0  0  0  0  0
   63.3930   -5.3770   75.5640 N   0  0  0  0  0  0  0  0  0  0  0  0
   62.9770   -4.7110   76.7720 C   0  0  0  0  0  0  0  0  0  0  0  0
   62.1430   -3.4590   76.5240 C   0  0  0  0  0  0  0  0  0  0  0  0
   62.8440   -2.6150   75.5560 C   0  0  0  0  0  0  0  0  0  0  0  0
   63.2680   -3.2010   74.3180 C   0  0  0  0  0  0  0  0  0  0  0  0
   64.0510   -4.4850   74.6080 C   0  0  0  0  0  0  0  0  0  0  0  0
   61.4740   -2.3250   74.9330 C   0  0  0  0  0  0  0  0  0  0  0  0
   60.7140   -1.5470   75.8250 O   0  0  0  0  0  0  0  0  0  0  0  0
   62.9660   -1.1380   75.7520 O   0  0  0  0  0  0  0  0  0  0  0  0
  1  2  1  0  0  0  0
  2  3  1  0  0  0  0
  3  4  2  0  0  0  0
  4  5  1  0  0  0  0
  5  6  2  0  0  0  0
  6  7  1  0  0  0  0
  7  8  1  0  0  0  0
  2  9  2  0  0  0  0
  6  9  1  0  0  0  0
  1 10  1  0  0  0  0
 10 11  1  0  0  0  0
 11 12  2  0  0  0  0
  1 13  2  0  0  0  0
 12 13  1  0  0  0  0
 11 14  1  0  0  0  0
 14 15  1  0  0  0  0
 15 16  1  0  0  0  0
 16 17  1  0  0  0  0
 17 18  1  0  0  0  0
 18 19  1  0  0  0  0
 15 20  1  0  0  0  0
 19 20  1  0  0  0  0
 18 21  1  0  0  0  0
 21 22  1  0  0  0  0
 18 23  1  0  0  0  0
M  END
$$$$
