7JUP
  PyMOL3.1          3D                             0

 46 50  0  0  0  0  0  0  0  0999 V2000
  105.0590   99.5610   83.3510 C   0  0  0  0  0  0  0  0  0  0  0  0
  105.1530   99.0160   84.7010 N   0  0  0  0  0  0  0  0  0  0  0  0
  105.8150   97.8680   85.0890 C   0  0  0  0  0  0  0  0  0  0  0  0
  105.6180   97.5960   86.3690 N   0  0  0  0  0  0  0  0  0  0  0  0
  104.7700   98.5700   86.7950 C   0  0  0  0  0  0  0  0  0  0  0  0
  104.4880   99.4550   85.8200 C   0  0  0  0  0  0  0  0  0  0  0  0
  103.6090  100.5900   85.9770 C   0  0  0  0  0  0  0  0  0  0  0  0
  103.3940  101.4090   85.1000 O   0  0  0  0  0  0  0  0  0  0  0  0
  103.0260  100.6370   87.2080 N   0  0  0  0  0  0  0  0  0  0  0  0
  103.3780   99.7330   88.1920 C   0  0  0  0  0  0  0  0  0  0  0  0
  104.2170   98.7160   88.0380 N   0  0  0  0  0  0  0  0  0  0  0  0
  101.9920  101.6620   87.5060 C   0  0  0  0  0  0  0  0  0  0  0  0
  100.6280  101.0880   87.7840 C   0  0  0  0  0  0  0  0  0  0  0  0
  100.3820   99.8470   88.1150 N   0  0  0  0  0  0  0  0  0  0  0  0
   99.0460   99.8930   88.3940 C   0  0  0  0  0  0  0  0  0  0  0  0
   98.4840  101.0780   88.2330 N   0  0  0  0  0  0  0  0  0  0  0  0
   99.5490  101.9020   87.8450 O   0  0  0  0  0  0  0  0  0  0  0  0
   98.3280   98.6850   88.9310 C   0  0  0  0  0  0  0  0  0  0  0  0
   96.8850   98.4810   88.4360 C   0  0  0  0  0  0  0  0  0  0  0  0
   96.9220   97.1120   87.7480 C   0  0  0  0  0  0  0  0  0  0  0  0
   97.9410   96.4410   88.4750 O   0  0  0  0  0  0  0  0  0  0  0  0
   99.0240   97.3710   88.5740 C   0  0  0  0  0  0  0  0  0  0  0  0
   95.6390   96.2950   87.7310 C   0  0  0  0  0  0  0  0  0  0  0  0
   95.7060   94.9320   87.4020 C   0  0  0  0  0  0  0  0  0  0  0  0
   94.5390   94.2040   87.1570 C   0  0  0  0  0  0  0  0  0  0  0  0
   93.3010   94.8360   87.2650 C   0  0  0  0  0  0  0  0  0  0  0  0
   93.2180   96.1730   87.6430 C   0  0  0  0  0  0  0  0  0  0  0  0
   94.3830   96.9050   87.8770 C   0  0  0  0  0  0  0  0  0  0  0  0
   92.1720   94.1560   87.0110 F   0  0  0  0  0  0  0  0  0  0  0  0
  105.5450   98.8810   82.6400 H   0  0  0  0  0  0  0  0  0  0  0  0
  104.0030   99.6730   83.0770 H   0  0  0  0  0  0  0  0  0  0  0  0
  105.5470  100.5430   83.3140 H   0  0  0  0  0  0  0  0  0  0  0  0
  106.3990   97.2800   84.3930 H   0  0  0  0  0  0  0  0  0  0  0  0
  102.8870   99.9230   89.1380 H   0  0  0  0  0  0  0  0  0  0  0  0
  102.2980  102.2310   88.3930 H   0  0  0  0  0  0  0  0  0  0  0  0
  101.9040  102.3770   86.6790 H   0  0  0  0  0  0  0  0  0  0  0  0
   98.3150   98.7570   90.0250 H   0  0  0  0  0  0  0  0  0  0  0  0
   96.2050   98.4720   89.2970 H   0  0  0  0  0  0  0  0  0  0  0  0
   96.5600   99.2590   87.7350 H   0  0  0  0  0  0  0  0  0  0  0  0
   97.2560   97.2540   86.7120 H   0  0  0  0  0  0  0  0  0  0  0  0
   99.5510   97.4400   87.6140 H   0  0  0  0  0  0  0  0  0  0  0  0
   99.7250   97.0880   89.3690 H   0  0  0  0  0  0  0  0  0  0  0  0
   96.6720   94.4470   87.2950 H   0  0  0  0  0  0  0  0  0  0  0  0
   94.5970   93.1600   86.8640 H   0  0  0  0  0  0  0  0  0  0  0  0
   92.2450   96.6480   87.7300 H   0  0  0  0  0  0  0  0  0  0  0  0
   94.2980   97.9580   88.1300 H   0  0  0  0  0  0  0  0  0  0  0  0
  1  2  1  0  0  0  0
  2  3  1  0  0  0  0
  3  4  2  0  0  0  0
  4  5  1  0  0  0  0
  2  6  1  0  0  0  0
  5  6  2  0  0  0  0
  6  7  1  0  0  0  0
  7  8  2  0  0  0  0
  7  9  1  0  0  0  0
  9 10  1  0  0  0  0
  5 11  1  0  0  0  0
 10 11  2  0  0  0  0
  9 12  1  0  0  0  0
 12 13  1  0  0  0  0
 13 14  2  0  0  0  0
 14 15  1  0  0  0  0
 15 16  2  0  0  0  0
 13 17  1  0  0  0  0
 16 17  1  0  0  0  0
 15 18  1  0  0  0  0
 18 19  1  0  0  0  0
 19 20  1  0  0  0  0
 20 21  1  0  0  0  0
 18 22  1  0  0  0  0
 21 22  1  0  0  0  0
 20 23  1  0  0  0  0
 23 24  2  0  0  0  0
 24 25  1  0  0  0  0
 25 26  2  0  0  0  0
 26 27  1  0  0  0  0
 23 28  1  0  0  0  0
 27 28  2  0  0  0  0
 26 29  1  0  0  0  0
  1 30  1  0  0  0  0
  1 31  1  0  0  0  0
  1 32  1  0  0  0  0
  3 33  1  0  0  0  0
 10 34  1  0  0  0  0
 12 35  1  0  0  0  0
 12 36  1  0  0  0  0
 18 37  1  0  0  0  0
 19 38  1  0  0  0  0
 19 39  1  0  0  0  0
 20 40  1  0  0  0  0
 22 41  1  0  0  0  0
 22 42  1  0  0  0  0
 24 43  1  0  0  0  0
 25 44  1  0  0  0  0
 27 45  1  0  0  0  0
 28 46  1  0  0  0  0
M  END
$$$$
