7JUP
  PyMOL3.1          3D                             0

184200  0  0  0  0  0  0  0  0999 V2000
   56.4940   61.9640   83.3820 C   0  0  0  0  0  0  0  0  0  0  0  0
   56.3880   62.5020   84.7340 N   0  0  0  0  0  0  0  0  0  0  0  0
   55.7270   63.6520   85.1190 C   0  0  0  0  0  0  0  0  0  0  0  0
   55.9220   63.9280   86.3980 N   0  0  0  0  0  0  0  0  0  0  0  0
   56.7740   62.9580   86.8250 C   0  0  0  0  0  0  0  0  0  0  0  0
   57.0500   62.0630   85.8540 C   0  0  0  0  0  0  0  0  0  0  0  0
   57.9180   60.9190   86.0180 C   0  0  0  0  0  0  0  0  0  0  0  0
   58.1100   60.0760   85.1560 O   0  0  0  0  0  0  0  0  0  0  0  0
   58.5150   60.8890   87.2430 N   0  0  0  0  0  0  0  0  0  0  0  0
   58.1620   61.7970   88.2250 C   0  0  0  0  0  0  0  0  0  0  0  0
   57.3270   62.8170   88.0670 N   0  0  0  0  0  0  0  0  0  0  0  0
   59.5610   59.8760   87.5450 C   0  0  0  0  0  0  0  0  0  0  0  0
   60.9130   60.4700   87.8410 C   0  0  0  0  0  0  0  0  0  0  0  0
   61.1290   61.7040   88.2070 N   0  0  0  0  0  0  0  0  0  0  0  0
   62.4780   61.7000   88.4070 C   0  0  0  0  0  0  0  0  0  0  0  0
   63.0750   60.5430   88.1850 N   0  0  0  0  0  0  0  0  0  0  0  0
   62.0210   59.6960   87.8190 O   0  0  0  0  0  0  0  0  0  0  0  0
   63.1530   62.9490   88.8790 C   0  0  0  0  0  0  0  0  0  0  0  0
   64.6510   63.1040   88.5520 C   0  0  0  0  0  0  0  0  0  0  0  0
   64.6990   64.3920   87.7310 C   0  0  0  0  0  0  0  0  0  0  0  0
   63.5800   65.1180   88.2160 O   0  0  0  0  0  0  0  0  0  0  0  0
   62.5160   64.1710   88.2290 C   0  0  0  0  0  0  0  0  0  0  0  0
   65.9680   65.2180   87.7840 C   0  0  0  0  0  0  0  0  0  0  0  0
   65.9140   66.5870   87.4840 C   0  0  0  0  0  0  0  0  0  0  0  0
   67.0860   67.2980   87.2220 C   0  0  0  0  0  0  0  0  0  0  0  0
   68.3150   66.6450   87.3010 C   0  0  0  0  0  0  0  0  0  0  0  0
   68.3840   65.3060   87.6730 C   0  0  0  0  0  0  0  0  0  0  0  0
   67.2130   64.5880   87.9130 C   0  0  0  0  0  0  0  0  0  0  0  0
   69.4500   67.3040   87.0240 F   0  0  0  0  0  0  0  0  0  0  0  0
   56.0360   60.9680   83.3410 H   0  0  0  0  0  0  0  0  0  0  0  0
   55.9870   62.6320   82.6740 H   0  0  0  0  0  0  0  0  0  0  0  0
   57.5520   61.8840   83.1050 H   0  0  0  0  0  0  0  0  0  0  0  0
   55.1400   64.2360   84.4230 H   0  0  0  0  0  0  0  0  0  0  0  0
   58.6520   61.6100   89.1710 H   0  0  0  0  0  0  0  0  0  0  0  0
   59.2550   59.2970   88.4250 H   0  0  0  0  0  0  0  0  0  0  0  0
   59.6690   59.1710   86.7120 H   0  0  0  0  0  0  0  0  0  0  0  0
   63.0120   63.0380   89.9640 H   0  0  0  0  0  0  0  0  0  0  0  0
   65.2320   63.2040   89.4770 H   0  0  0  0  0  0  0  0  0  0  0  0
   65.0510   62.2640   87.9710 H   0  0  0  0  0  0  0  0  0  0  0  0
   64.5170   64.1250   86.6820 H   0  0  0  0  0  0  0  0  0  0  0  0
   62.1950   63.9500   87.2040 H   0  0  0  0  0  0  0  0  0  0  0  0
   61.6540   64.5120   88.8160 H   0  0  0  0  0  0  0  0  0  0  0  0
   64.9560   67.0900   87.3860 H   0  0  0  0  0  0  0  0  0  0  0  0
   67.0360   68.3430   86.9300 H   0  0  0  0  0  0  0  0  0  0  0  0
   69.3510   64.8170   87.7410 H   0  0  0  0  0  0  0  0  0  0  0  0
   67.2790   63.5300   88.1480 H   0  0  0  0  0  0  0  0  0  0  0  0
   61.9760  105.0230   83.3400 C   0  0  0  0  0  0  0  0  0  0  0  0
   62.5230  105.1580   84.6860 N   0  0  0  0  0  0  0  0  0  0  0  0
   63.6690  105.8350   85.0500 C   0  0  0  0  0  0  0  0  0  0  0  0
   63.9580  105.6620   86.3290 N   0  0  0  0  0  0  0  0  0  0  0  0
   62.9970  104.8160   86.7820 C   0  0  0  0  0  0  0  0  0  0  0  0
   62.0970  104.5170   85.8240 C   0  0  0  0  0  0  0  0  0  0  0  0
   60.9610  103.6480   86.0150 C   0  0  0  0  0  0  0  0  0  0  0  0
   60.1220  103.4290   85.1580 O   0  0  0  0  0  0  0  0  0  0  0  0
   60.9400  103.0790   87.2510 N   0  0  0  0  0  0  0  0  0  0  0  0
   61.8600  103.4450   88.2170 C   0  0  0  0  0  0  0  0  0  0  0  0
   62.8720  104.2840   88.0350 N   0  0  0  0  0  0  0  0  0  0  0  0
   59.9400  102.0270   87.5740 C   0  0  0  0  0  0  0  0  0  0  0  0
   60.5530  100.6790   87.8390 C   0  0  0  0  0  0  0  0  0  0  0  0
   61.8010  100.4720   88.1670 N   0  0  0  0  0  0  0  0  0  0  0  0
   61.8040   99.1310   88.4130 C   0  0  0  0  0  0  0  0  0  0  0  0
   60.6400   98.5290   88.2340 N   0  0  0  0  0  0  0  0  0  0  0  0
   59.7780   99.5720   87.8660 O   0  0  0  0  0  0  0  0  0  0  0  0
   63.0520   98.4580   88.9090 C   0  0  0  0  0  0  0  0  0  0  0  0
   63.2160   96.9790   88.5070 C   0  0  0  0  0  0  0  0  0  0  0  0
   64.5100   96.9660   87.6920 C   0  0  0  0  0  0  0  0  0  0  0  0
   65.2440   98.0380   88.2700 O   0  0  0  0  0  0  0  0  0  0  0  0
   64.3230   99.1280   88.3730 C   0  0  0  0  0  0  0  0  0  0  0  0
   65.3200   95.6790   87.6970 C   0  0  0  0  0  0  0  0  0  0  0  0
   66.6780   95.7150   87.3420 C   0  0  0  0  0  0  0  0  0  0  0  0
   67.3820   94.5280   87.1230 C   0  0  0  0  0  0  0  0  0  0  0  0
   66.7310   93.3040   87.2760 C   0  0  0  0  0  0  0  0  0  0  0  0
   65.3990   93.2550   87.6760 C   0  0  0  0  0  0  0  0  0  0  0  0
   64.6920   94.4390   87.8860 C   0  0  0  0  0  0  0  0  0  0  0  0
   67.3870   92.1580   87.0430 F   0  0  0  0  0  0  0  0  0  0  0  0
   62.6660  105.4670   82.6120 H   0  0  0  0  0  0  0  0  0  0  0  0
   61.8440  103.9590   83.1040 H   0  0  0  0  0  0  0  0  0  0  0  0
   61.0040  105.5280   83.2800 H   0  0  0  0  0  0  0  0  0  0  0  0
   64.2440  106.4130   84.3380 H   0  0  0  0  0  0  0  0  0  0  0  0
   61.6890  102.9640   89.1710 H   0  0  0  0  0  0  0  0  0  0  0  0
   59.3880  102.3220   88.4750 H   0  0  0  0  0  0  0  0  0  0  0  0
   59.2090  101.9230   86.7620 H   0  0  0  0  0  0  0  0  0  0  0  0
   63.0760   98.5340   90.0030 H   0  0  0  0  0  0  0  0  0  0  0  0
   63.3100   96.3610   89.4080 H   0  0  0  0  0  0  0  0  0  0  0  0
   62.3790   96.5980   87.9080 H   0  0  0  0  0  0  0  0  0  0  0  0
   64.2650   97.2200   86.6540 H   0  0  0  0  0  0  0  0  0  0  0  0
   64.1520   99.5670   87.3820 H   0  0  0  0  0  0  0  0  0  0  0  0
   64.6870   99.9030   89.0590 H   0  0  0  0  0  0  0  0  0  0  0  0
   67.1760   96.6680   87.1910 H   0  0  0  0  0  0  0  0  0  0  0  0
   68.4220   94.5590   86.8110 H   0  0  0  0  0  0  0  0  0  0  0  0
   64.9070   92.2940   87.7970 H   0  0  0  0  0  0  0  0  0  0  0  0
   63.6400   94.3820   88.1510 H   0  0  0  0  0  0  0  0  0  0  0  0
  105.0590   99.5610   83.3510 C   0  0  0  0  0  0  0  0  0  0  0  0
  105.1530   99.0160   84.7010 N   0  0  0  0  0  0  0  0  0  0  0  0
  105.8150   97.8680   85.0890 C   0  0  0  0  0  0  0  0  0  0  0  0
  105.6180   97.5960   86.3690 N   0  0  0  0  0  0  0  0  0  0  0  0
  104.7700   98.5700   86.7950 C   0  0  0  0  0  0  0  0  0  0  0  0
  104.4880   99.4550   85.8200 C   0  0  0  0  0  0  0  0  0  0  0  0
  103.6090  100.5900   85.9770 C   0  0  0  0  0  0  0  0  0  0  0  0
  103.3940  101.4090   85.1000 O   0  0  0  0  0  0  0  0  0  0  0  0
  103.0260  100.6370   87.2080 N   0  0  0  0  0  0  0  0  0  0  0  0
  103.3780   99.7330   88.1920 C   0  0  0  0  0  0  0  0  0  0  0  0
  104.2170   98.7160   88.0380 N   0  0  0  0  0  0  0  0  0  0  0  0
  101.9920  101.6620   87.5060 C   0  0  0  0  0  0  0  0  0  0  0  0
  100.6280  101.0880   87.7840 C   0  0  0  0  0  0  0  0  0  0  0  0
  100.3820   99.8470   88.1150 N   0  0  0  0  0  0  0  0  0  0  0  0
   99.0460   99.8930   88.3940 C   0  0  0  0  0  0  0  0  0  0  0  0
   98.4840  101.0780   88.2330 N   0  0  0  0  0  0  0  0  0  0  0  0
   99.5490  101.9020   87.8450 O   0  0  0  0  0  0  0  0  0  0  0  0
   98.3280   98.6850   88.9310 C   0  0  0  0  0  0  0  0  0  0  0  0
   96.8850   98.4810   88.4360 C   0  0  0  0  0  0  0  0  0  0  0  0
   96.9220   97.1120   87.7480 C   0  0  0  0  0  0  0  0  0  0  0  0
   97.9410   96.4410   88.4750 O   0  0  0  0  0  0  0  0  0  0  0  0
   99.0240   97.3710   88.5740 C   0  0  0  0  0  0  0  0  0  0  0  0
   95.6390   96.2950   87.7310 C   0  0  0  0  0  0  0  0  0  0  0  0
   95.7060   94.9320   87.4020 C   0  0  0  0  0  0  0  0  0  0  0  0
   94.5390   94.2040   87.1570 C   0  0  0  0  0  0  0  0  0  0  0  0
   93.3010   94.8360   87.2650 C   0  0  0  0  0  0  0  0  0  0  0  0
   93.2180   96.1730   87.6430 C   0  0  0  0  0  0  0  0  0  0  0  0
   94.3830   96.9050   87.8770 C   0  0  0  0  0  0  0  0  0  0  0  0
   92.1720   94.1560   87.0110 F   0  0  0  0  0  0  0  0  0  0  0  0
  105.5450   98.8810   82.6400 H   0  0  0  0  0  0  0  0  0  0  0  0
  104.0030   99.6730   83.0770 H   0  0  0  0  0  0  0  0  0  0  0  0
  105.5470  100.5430   83.3140 H   0  0  0  0  0  0  0  0  0  0  0  0
  106.3990   97.2800   84.3930 H   0  0  0  0  0  0  0  0  0  0  0  0
  102.8870   99.9230   89.1380 H   0  0  0  0  0  0  0  0  0  0  0  0
  102.2980  102.2310   88.3930 H   0  0  0  0  0  0  0  0  0  0  0  0
  101.9040  102.3770   86.6790 H   0  0  0  0  0  0  0  0  0  0  0  0
   98.3150   98.7570   90.0250 H   0  0  0  0  0  0  0  0  0  0  0  0
   96.2050   98.4720   89.2970 H   0  0  0  0  0  0  0  0  0  0  0  0
   96.5600   99.2590   87.7350 H   0  0  0  0  0  0  0  0  0  0  0  0
   97.2560   97.2540   86.7120 H   0  0  0  0  0  0  0  0  0  0  0  0
   99.5510   97.4400   87.6140 H   0  0  0  0  0  0  0  0  0  0  0  0
   99.7250   97.0880   89.3690 H   0  0  0  0  0  0  0  0  0  0  0  0
   96.6720   94.4470   87.2950 H   0  0  0  0  0  0  0  0  0  0  0  0
   94.5970   93.1600   86.8640 H   0  0  0  0  0  0  0  0  0  0  0  0
   92.2450   96.6480   87.7300 H   0  0  0  0  0  0  0  0  0  0  0  0
   94.2980   97.9580   88.1300 H   0  0  0  0  0  0  0  0  0  0  0  0
   99.1660   55.9250   83.6200 C   0  0  0  0  0  0  0  0  0  0  0  0
   98.6820   56.1650   84.9740 N   0  0  0  0  0  0  0  0  0  0  0  0
   97.5510   55.6090   85.5370 C   0  0  0  0  0  0  0  0  0  0  0  0
   97.4290   55.9260   86.8140 N   0  0  0  0  0  0  0  0  0  0  0  0
   98.4750   56.7580   87.0530 C   0  0  0  0  0  0  0  0  0  0  0  0
   99.2500   56.9350   85.9620 C   0  0  0  0  0  0  0  0  0  0  0  0
  100.4080   57.8010   85.9190 C   0  0  0  0  0  0  0  0  0  0  0  0
  101.0880   57.9800   84.9170 O   0  0  0  0  0  0  0  0  0  0  0  0
  100.6290   58.4410   87.1050 N   0  0  0  0  0  0  0  0  0  0  0  0
   99.8550   58.1600   88.2150 C   0  0  0  0  0  0  0  0  0  0  0  0
   98.7870   57.3780   88.2300 N   0  0  0  0  0  0  0  0  0  0  0  0
  101.6680   59.4990   87.2190 C   0  0  0  0  0  0  0  0  0  0  0  0
  101.1270   60.8330   87.6790 C   0  0  0  0  0  0  0  0  0  0  0  0
   99.8830   61.0670   87.9890 N   0  0  0  0  0  0  0  0  0  0  0  0
   99.9090   62.3880   88.3240 C   0  0  0  0  0  0  0  0  0  0  0  0
  101.0990   62.9580   88.2350 N   0  0  0  0  0  0  0  0  0  0  0  0
  101.9400   61.9050   87.8200 O   0  0  0  0  0  0  0  0  0  0  0  0
   98.6530   63.0600   88.8020 C   0  0  0  0  0  0  0  0  0  0  0  0
   98.4930   64.5630   88.4910 C   0  0  0  0  0  0  0  0  0  0  0  0
   97.1910   64.6240   87.6840 C   0  0  0  0  0  0  0  0  0  0  0  0
   96.4710   63.5000   88.1690 O   0  0  0  0  0  0  0  0  0  0  0  0
   97.4180   62.4320   88.1560 C   0  0  0  0  0  0  0  0  0  0  0  0
   96.3540   65.8900   87.7550 C   0  0  0  0  0  0  0  0  0  0  0  0
   94.9900   65.8350   87.4210 C   0  0  0  0  0  0  0  0  0  0  0  0
   94.2720   67.0080   87.1830 C   0  0  0  0  0  0  0  0  0  0  0  0
   94.9130   68.2400   87.3040 C   0  0  0  0  0  0  0  0  0  0  0  0
   96.2460   68.3100   87.7020 C   0  0  0  0  0  0  0  0  0  0  0  0
   96.9670   67.1370   87.9340 C   0  0  0  0  0  0  0  0  0  0  0  0
   94.2520   69.3760   87.0340 F   0  0  0  0  0  0  0  0  0  0  0  0
   98.7340   54.9850   83.2560 H   0  0  0  0  0  0  0  0  0  0  0  0
   98.8350   56.7260   82.9470 H   0  0  0  0  0  0  0  0  0  0  0  0
  100.2610   55.8640   83.6130 H   0  0  0  0  0  0  0  0  0  0  0  0
   96.8820   54.9710   84.9740 H   0  0  0  0  0  0  0  0  0  0  0  0
  100.1850   58.6770   89.1060 H   0  0  0  0  0  0  0  0  0  0  0  0
  102.4310   59.1740   87.9360 H   0  0  0  0  0  0  0  0  0  0  0  0
  102.1610   59.6520   86.2510 H   0  0  0  0  0  0  0  0  0  0  0  0
   98.5680   62.9100   89.8860 H   0  0  0  0  0  0  0  0  0  0  0  0
   98.4060   65.1340   89.4240 H   0  0  0  0  0  0  0  0  0  0  0  0
   99.3310   64.9650   87.9070 H   0  0  0  0  0  0  0  0  0  0  0  0
   97.4430   64.4530   86.6300 H   0  0  0  0  0  0  0  0  0  0  0  0
   97.6240   62.1240   87.1240 H   0  0  0  0  0  0  0  0  0  0  0  0
   97.0780   61.5640   88.7340 H   0  0  0  0  0  0  0  0  0  0  0  0
   94.4960   64.8760   87.2910 H   0  0  0  0  0  0  0  0  0  0  0  0
   93.2320   66.9580   86.8740 H   0  0  0  0  0  0  0  0  0  0  0  0
   96.7260   69.2790   87.7980 H   0  0  0  0  0  0  0  0  0  0  0  0
   98.0190   67.2070   88.1950 H   0  0  0  0  0  0  0  0  0  0  0  0
  1  2  1  0  0  0  0
  2  3  1  0  0  0  0
  3  4  2  0  0  0  0
  4  5  1  0  0  0  0
  2  6  1  0  0  0  0
  5  6  2  0  0  0  0
  6  7  1  0  0  0  0
  7  8  2  0  0  0  0
  7  9  1  0  0  0  0
  9 10  1  0  0  0  0
  5 11  1  0  0  0  0
 10 11  2  0  0  0  0
  9 12  1  0  0  0  0
 12 13  1  0  0  0  0
 13 14  2  0  0  0  0
 14 15  1  0  0  0  0
 15 16  2  0  0  0  0
 13 17  1  0  0  0  0
 16 17  1  0  0  0  0
 15 18  1  0  0  0  0
 18 19  1  0  0  0  0
 19 20  1  0  0  0  0
 20 21  1  0  0  0  0
 18 22  1  0  0  0  0
 21 22  1  0  0  0  0
 20 23  1  0  0  0  0
 23 24  2  0  0  0  0
 24 25  1  0  0  0  0
 25 26  2  0  0  0  0
 26 27  1  0  0  0  0
 23 28  1  0  0  0  0
 27 28  2  0  0  0  0
 26 29  1  0  0  0  0
  1 30  1  0  0  0  0
  1 31  1  0  0  0  0
  1 32  1  0  0  0  0
  3 33  1  0  0  0  0
 10 34  1  0  0  0  0
 12 35  1  0  0  0  0
 12 36  1  0  0  0  0
 18 37  1  0  0  0  0
 19 38  1  0  0  0  0
 19 39  1  0  0  0  0
 20 40  1  0  0  0  0
 22 41  1  0  0  0  0
 22 42  1  0  0  0  0
 24 43  1  0  0  0  0
 25 44  1  0  0  0  0
 27 45  1  0  0  0  0
 28 46  1  0  0  0  0
 47 48  1  0  0  0  0
 48 49  1  0  0  0  0
 49 50  2  0  0  0  0
 50 51  1  0  0  0  0
 48 52  1  0  0  0  0
 51 52  2  0  0  0  0
 52 53  1  0  0  0  0
 53 54  2  0  0  0  0
 53 55  1  0  0  0  0
 55 56  1  0  0  0  0
 51 57  1  0  0  0  0
 56 57  2  0  0  0  0
 55 58  1  0  0  0  0
 58 59  1  0  0  0  0
 59 60  2  0  0  0  0
 60 61  1  0  0  0  0
 61 62  2  0  0  0  0
 59 63  1  0  0  0  0
 62 63  1  0  0  0  0
 61 64  1  0  0  0  0
 64 65  1  0  0  0  0
 65 66  1  0  0  0  0
 66 67  1  0  0  0  0
 64 68  1  0  0  0  0
 67 68  1  0  0  0  0
 66 69  1  0  0  0  0
 69 70  2  0  0  0  0
 70 71  1  0  0  0  0
 71 72  2  0  0  0  0
 72 73  1  0  0  0  0
 69 74  1  0  0  0  0
 73 74  2  0  0  0  0
 72 75  1  0  0  0  0
 47 76  1  0  0  0  0
 47 77  1  0  0  0  0
 47 78  1  0  0  0  0
 49 79  1  0  0  0  0
 56 80  1  0  0  0  0
 58 81  1  0  0  0  0
 58 82  1  0  0  0  0
 64 83  1  0  0  0  0
 65 84  1  0  0  0  0
 65 85  1  0  0  0  0
 66 86  1  0  0  0  0
 68 87  1  0  0  0  0
 68 88  1  0  0  0  0
 70 89  1  0  0  0  0
 71 90  1  0  0  0  0
 73 91  1  0  0  0  0
 74 92  1  0  0  0  0
 93 94  1  0  0  0  0
 94 95  1  0  0  0  0
 95 96  2  0  0  0  0
 96 97  1  0  0  0  0
 94 98  1  0  0  0  0
 97 98  2  0  0  0  0
 98 99  1  0  0  0  0
 99100  2  0  0  0  0
 99101  1  0  0  0  0
101102  1  0  0  0  0
 97103  1  0  0  0  0
102103  2  0  0  0  0
101104  1  0  0  0  0
104105  1  0  0  0  0
105106  2  0  0  0  0
106107  1  0  0  0  0
107108  2  0  0  0  0
105109  1  0  0  0  0
108109  1  0  0  0  0
107110  1  0  0  0  0
110111  1  0  0  0  0
111112  1  0  0  0  0
112113  1  0  0  0  0
110114  1  0  0  0  0
113114  1  0  0  0  0
112115  1  0  0  0  0
115116  2  0  0  0  0
116117  1  0  0  0  0
117118  2  0  0  0  0
118119  1  0  0  0  0
115120  1  0  0  0  0
119120  2  0  0  0  0
118121  1  0  0  0  0
 93122  1  0  0  0  0
 93123  1  0  0  0  0
 93124  1  0  0  0  0
 95125  1  0  0  0  0
102126  1  0  0  0  0
104127  1  0  0  0  0
104128  1  0  0  0  0
110129  1  0  0  0  0
111130  1  0  0  0  0
111131  1  0  0  0  0
112132  1  0  0  0  0
114133  1  0  0  0  0
114134  1  0  0  0  0
116135  1  0  0  0  0
117136  1  0  0  0  0
119137  1  0  0  0  0
120138  1  0  0  0  0
139140  1  0  0  0  0
140141  1  0  0  0  0
141142  2  0  0  0  0
142143  1  0  0  0  0
140144  1  0  0  0  0
143144  2  0  0  0  0
144145  1  0  0  0  0
145146  2  0  0  0  0
145147  1  0  0  0  0
147148  1  0  0  0  0
143149  1  0  0  0  0
148149  2  0  0  0  0
147150  1  0  0  0  0
150151  1  0  0  0  0
151152  2  0  0  0  0
152153  1  0  0  0  0
153154  2  0  0  0  0
151155  1  0  0  0  0
154155  1  0  0  0  0
153156  1  0  0  0  0
156157  1  0  0  0  0
157158  1  0  0  0  0
158159  1  0  0  0  0
156160  1  0  0  0  0
159160  1  0  0  0  0
158161  1  0  0  0  0
161162  2  0  0  0  0
162163  1  0  0  0  0
163164  2  0  0  0  0
164165  1  0  0  0  0
161166  1  0  0  0  0
165166  2  0  0  0  0
164167  1  0  0  0  0
139168  1  0  0  0  0
139169  1  0  0  0  0
139170  1  0  0  0  0
141171  1  0  0  0  0
148172  1  0  0  0  0
150173  1  0  0  0  0
150174  1  0  0  0  0
156175  1  0  0  0  0
157176  1  0  0  0  0
157177  1  0  0  0  0
158178  1  0  0  0  0
160179  1  0  0  0  0
160180  1  0  0  0  0
162181  1  0  0  0  0
163182  1  0  0  0  0
165183  1  0  0  0  0
166184  1  0  0  0  0
M  END
$$$$
