8SI5
  PyMOL3.1          3D                             0

 57 64  0  0  0  0  0  0  0  0999 V2000
   92.4480  153.1490  122.3910 C   0  0  0  0  0  0  0  0  0  0  0  0
   93.8840  152.8000  122.4700 C   0  0  0  0  0  0  0  0  0  0  0  0
   93.1070  153.0220  123.7010 C   0  0  0  0  0  0  0  0  0  0  0  0
   92.7780  151.8370  124.5530 C   0  0  0  0  0  0  0  0  0  0  0  0
   93.9950  151.0500  124.9760 N   0  3  0  0  0  0  0  0  0  0  0  0
   93.5960  149.6960  125.5000 C   0  0  0  0  0  0  0  0  0  0  0  0
   94.7000  148.9350  126.2080 C   0  0  0  0  0  0  0  0  0  0  0  0
   95.5000  149.7920  127.2060 C   0  0  0  0  0  0  0  0  0  0  0  0
   95.8210  149.0460  128.5240 C   0  0  0  0  0  0  0  0  0  0  0  0
   96.0850  149.9740  129.6030 C   0  0  0  0  0  0  0  0  0  0  0  0
   95.9940  151.3160  129.5670 C   0  0  0  0  0  0  0  0  0  0  0  0
   95.6300  152.0600  128.3210 C   0  0  0  0  0  0  0  0  0  0  0  0
   94.8870  151.1980  127.2990 C   0  0  0  0  0  0  0  0  0  0  0  0
   94.9660  151.8050  125.8740 C   0  0  0  0  0  0  0  0  0  0  0  0
   96.3770  151.8770  125.2570 C   0  0  0  0  0  0  0  0  0  0  0  0
   97.3390  150.8310  125.7620 C   0  0  0  0  0  0  0  0  0  0  0  0
   96.8860  149.9310  126.6940 C   0  0  0  0  0  0  0  0  0  0  0  0
   97.6840  148.9840  127.2760 C   0  0  0  0  0  0  0  0  0  0  0  0
   99.0100  148.8710  126.9210 C   0  0  0  0  0  0  0  0  0  0  0  0
   99.4990  149.7550  125.9640 C   0  0  0  0  0  0  0  0  0  0  0  0
   98.6740  150.7100  125.3920 C   0  0  0  0  0  0  0  0  0  0  0  0
   99.8160  147.9550  127.4990 O   0  0  0  0  0  0  0  0  0  0  0  0
   97.0150  148.2450  128.2200 O   0  0  0  0  0  0  0  0  0  0  0  0
   93.5310  151.2580  127.7600 O   0  0  0  0  0  0  0  0  0  0  0  0
   96.3640  151.7760  130.8680 C   0  0  0  0  0  0  0  0  0  0  0  0
   96.4780  153.0190  131.4810 C   0  0  0  0  0  0  0  0  0  0  0  0
   96.9410  153.0920  132.7840 C   0  0  0  0  0  0  0  0  0  0  0  0
   97.2710  151.9420  133.4830 C   0  0  0  0  0  0  0  0  0  0  0  0
   97.1450  150.6970  132.8940 C   0  0  0  0  0  0  0  0  0  0  0  0
   96.6890  150.6450  131.5960 C   0  0  0  0  0  0  0  0  0  0  0  0
   96.5120  149.5160  130.8290 O   0  0  0  0  0  0  0  0  0  0  0  0
   94.4170  150.9020  124.2240 H   0  0  0  0  0  0  0  0  0  0  0  0
   93.2830  153.8390  124.2070 H   0  0  0  0  0  0  0  0  0  0  0  0
   95.1040  148.4440  128.8000 H   0  0  0  0  0  0  0  0  0  0  0  0
   94.6380  152.7170  125.9150 H   0  0  0  0  0  0  0  0  0  0  0  0
  100.4330  149.7120  125.6970 H   0  0  0  0  0  0  0  0  0  0  0  0
   99.0500  151.2970  124.7110 H   0  0  0  0  0  0  0  0  0  0  0  0
  100.5810  148.0480  127.1650 H   0  0  0  0  0  0  0  0  0  0  0  0
   93.2720  152.0620  127.7140 H   0  0  0  0  0  0  0  0  0  0  0  0
   96.2220  153.8370  131.0170 H   0  0  0  0  0  0  0  0  0  0  0  0
   91.8410  152.4510  122.0770 H   0  0  0  0  0  0  0  0  0  0  0  0
   97.0410  153.9620  133.2050 H   0  0  0  0  0  0  0  0  0  0  0  0
   92.2160  154.0440  122.0800 H   0  0  0  0  0  0  0  0  0  0  0  0
   97.6120  152.0050  134.3940 H   0  0  0  0  0  0  0  0  0  0  0  0
   97.3820  149.8840  133.3740 H   0  0  0  0  0  0  0  0  0  0  0  0
   94.5410  153.4660  122.1780 H   0  0  0  0  0  0  0  0  0  0  0  0
   94.1420  151.8760  122.2770 H   0  0  0  0  0  0  0  0  0  0  0  0
   92.2210  151.2200  124.0370 H   0  0  0  0  0  0  0  0  0  0  0  0
   92.2920  152.1180  125.3540 H   0  0  0  0  0  0  0  0  0  0  0  0
   93.3430  149.2050  124.6970 H   0  0  0  0  0  0  0  0  0  0  0  0
   92.7690  149.7740  126.0170 H   0  0  0  0  0  0  0  0  0  0  0  0
   94.3110  148.1620  126.6520 H   0  0  0  0  0  0  0  0  0  0  0  0
   95.2800  148.5700  125.5170 H   0  0  0  0  0  0  0  0  0  0  0  0
   95.0540  152.8010  128.5720 H   0  0  0  0  0  0  0  0  0  0  0  0
   96.4480  152.4520  127.9710 H   0  0  0  0  0  0  0  0  0  0  0  0
   96.7520  152.7440  125.4970 H   0  0  0  0  0  0  0  0  0  0  0  0
   96.3350  151.8390  124.2840 H   0  0  0  0  0  0  0  0  0  0  0  0
  1  2  1  0  0  0  0
  1  3  1  0  0  0  0
  1 41  1  0  0  0  0
  1 43  1  0  0  0  0
  2  3  1  0  0  0  0
  2 46  1  0  0  0  0
  2 47  1  0  0  0  0
  3  4  1  0  0  0  0
  3 33  1  0  0  0  0
  4  5  1  0  0  0  0
  4 48  1  0  0  0  0
  4 49  1  0  0  0  0
  5 32  1  0  0  0  0
  5  6  1  0  0  0  0
  6  7  1  0  0  0  0
  6 50  1  0  0  0  0
  6 51  1  0  0  0  0
  7  8  1  0  0  0  0
  7 52  1  0  0  0  0
  7 53  1  0  0  0  0
  8  9  1  0  0  0  0
  9 23  1  0  0  0  0
  9 34  1  0  0  0  0
  9 10  1  0  0  0  0
 10 11  4  0  0  0  0
 10 31  4  0  0  0  0
 11 12  1  0  0  0  0
 11 25  4  0  0  0  0
 12 13  1  0  0  0  0
 12 54  1  0  0  0  0
 12 55  1  0  0  0  0
  8 13  1  0  0  0  0
 13 14  1  0  0  0  0
 13 24  1  0  0  0  0
  5 14  1  0  0  0  0
 14 15  1  0  0  0  0
 14 35  1  0  0  0  0
 15 16  1  0  0  0  0
 15 56  1  0  0  0  0
 15 57  1  0  0  0  0
 16 17  4  0  0  0  0
 16 21  4  0  0  0  0
  8 17  1  0  0  0  0
 17 18  4  0  0  0  0
 18 19  4  0  0  0  0
 18 23  1  0  0  0  0
 19 20  4  0  0  0  0
 19 22  1  0  0  0  0
 20 21  4  0  0  0  0
 20 36  1  0  0  0  0
 21 37  1  0  0  0  0
 22 38  1  0  0  0  0
 24 39  1  0  0  0  0
 25 26  4  0  0  0  0
 25 30  4  0  0  0  0
 26 27  4  0  0  0  0
 26 40  1  0  0  0  0
 27 28  4  0  0  0  0
 27 42  1  0  0  0  0
 28 29  4  0  0  0  0
 28 44  1  0  0  0  0
 29 30  4  0  0  0  0
 29 45  1  0  0  0  0
 30 31  4  0  0  0  0
M  END
$$$$
