8SI5
  PyMOL3.1          3D                             0

 57 63  0  0  0  0  0  0  0  0999 V2000
   95.7630   92.1380  122.5870 C   0  0  0  0  0  0  0  0  0  0  0  0
   96.2780   93.5090  122.3870 C   0  0  0  0  0  0  0  0  0  0  0  0
   95.9740   93.0270  123.7410 C   0  0  0  0  0  0  0  0  0  0  0  0
   97.1210   92.7440  124.6580 C   0  0  0  0  0  0  0  0  0  0  0  0
   97.9180   93.9770  125.0060 N   0  3  0  0  0  0  0  0  0  0  0  0
   99.2850   93.5950  125.5120 C   0  0  0  0  0  0  0  0  0  0  0  0
  100.0510   94.7060  126.2070 C   0  0  0  0  0  0  0  0  0  0  0  0
   99.2040   95.5130  127.2090 C   0  0  0  0  0  0  0  0  0  0  0  0
   99.9570   95.8310  128.5230 C   0  0  0  0  0  0  0  0  0  0  0  0
   99.0330   96.0990  129.6050 C   0  0  0  0  0  0  0  0  0  0  0  0
   97.6910   96.0170  129.5720 C   0  0  0  0  0  0  0  0  0  0  0  0
   96.9400   95.6670  128.3260 C   0  0  0  0  0  0  0  0  0  0  0  0
   97.7950   94.9110  127.3090 C   0  0  0  0  0  0  0  0  0  0  0  0
   97.1870   94.9820  125.8850 C   0  0  0  0  0  0  0  0  0  0  0  0
   97.1410   96.3840  125.2420 C   0  0  0  0  0  0  0  0  0  0  0  0
   98.1770   97.3500  125.7570 C   0  0  0  0  0  0  0  0  0  0  0  0
   99.0740   96.8970  126.6920 C   0  0  0  0  0  0  0  0  0  0  0  0
  100.0220   97.6940  127.2750 C   0  0  0  0  0  0  0  0  0  0  0  0
  100.1350   99.0190  126.9220 C   0  0  0  0  0  0  0  0  0  0  0  0
   99.2520   99.5090  125.9640 C   0  0  0  0  0  0  0  0  0  0  0  0
   98.2980   98.6850  125.3900 C   0  0  0  0  0  0  0  0  0  0  0  0
  101.0500   99.8260  127.5020 O   0  0  0  0  0  0  0  0  0  0  0  0
  100.7620   97.0210  128.2160 O   0  0  0  0  0  0  0  0  0  0  0  0
   97.7300   93.5580  127.7790 O   0  0  0  0  0  0  0  0  0  0  0  0
   97.2370   96.3820  130.8770 C   0  0  0  0  0  0  0  0  0  0  0  0
   95.9970   96.4970  131.4950 C   0  0  0  0  0  0  0  0  0  0  0  0
   95.9300   96.9570  132.7990 C   0  0  0  0  0  0  0  0  0  0  0  0
   97.0830   97.2810  133.4960 C   0  0  0  0  0  0  0  0  0  0  0  0
   98.3260   97.1510  132.9010 C   0  0  0  0  0  0  0  0  0  0  0  0
   98.3720   96.6990  131.6020 C   0  0  0  0  0  0  0  0  0  0  0  0
   99.4980   96.5190  130.8310 O   0  0  0  0  0  0  0  0  0  0  0  0
   98.0420   94.3650  124.2300 H   0  0  0  0  0  0  0  0  0  0  0  0
   95.1870   93.3980  124.1850 H   0  0  0  0  0  0  0  0  0  0  0  0
  100.5570   95.1120  128.7970 H   0  0  0  0  0  0  0  0  0  0  0  0
   96.2690   94.6670  125.9210 H   0  0  0  0  0  0  0  0  0  0  0  0
   99.2960  100.4440  125.6970 H   0  0  0  0  0  0  0  0  0  0  0  0
   97.7120   99.0630  124.7100 H   0  0  0  0  0  0  0  0  0  0  0  0
  100.9570  100.5920  127.1680 H   0  0  0  0  0  0  0  0  0  0  0  0
   96.9230   93.3080  127.7520 H   0  0  0  0  0  0  0  0  0  0  0  0
   95.1770   96.2440  131.0330 H   0  0  0  0  0  0  0  0  0  0  0  0
   96.3820   91.4010  122.4190 H   0  0  0  0  0  0  0  0  0  0  0  0
   95.0620   97.0570  133.2240 H   0  0  0  0  0  0  0  0  0  0  0  0
   94.8450   91.9560  122.3090 H   0  0  0  0  0  0  0  0  0  0  0  0
   97.0250   97.6210  134.4070 H   0  0  0  0  0  0  0  0  0  0  0  0
   99.1420   97.3850  133.3790 H   0  0  0  0  0  0  0  0  0  0  0  0
   95.6900   94.1700  121.9680 H   0  0  0  0  0  0  0  0  0  0  0  0
   97.2250   93.6180  122.1670 H   0  0  0  0  0  0  0  0  0  0  0  0
   97.7400   92.1310  124.2130 H   0  0  0  0  0  0  0  0  0  0  0  0
   96.8000   92.3340  125.4850 H   0  0  0  0  0  0  0  0  0  0  0  0
   99.7670   93.3390  124.7050 H   0  0  0  0  0  0  0  0  0  0  0  0
   99.2160   92.7740  126.0390 H   0  0  0  0  0  0  0  0  0  0  0  0
  100.8280   94.3190  126.6480 H   0  0  0  0  0  0  0  0  0  0  0  0
  100.4100   95.2810  125.5080 H   0  0  0  0  0  0  0  0  0  0  0  0
   96.1900   95.1030  128.5780 H   0  0  0  0  0  0  0  0  0  0  0  0
   96.5610   96.4900  127.9730 H   0  0  0  0  0  0  0  0  0  0  0  0
   96.2700   96.7670  125.4540 H   0  0  0  0  0  0  0  0  0  0  0  0
   97.2020   96.3250  124.2710 H   0  0  0  0  0  0  0  0  0  0  0  0
  1  2  1  0  0  0  0
  1  3  1  0  0  0  0
  2  3  1  0  0  0  0
  3  4  1  0  0  0  0
  4  5  1  0  0  0  0
  5  6  1  0  0  0  0
  6  7  1  0  0  0  0
  7  8  1  0  0  0  0
  8  9  1  0  0  0  0
  9 10  1  0  0  0  0
 10 11  2  0  0  0  0
 11 12  1  0  0  0  0
  8 13  1  0  0  0  0
 12 13  1  0  0  0  0
  5 14  1  0  0  0  0
 13 14  1  0  0  0  0
 14 15  1  0  0  0  0
 15 16  1  0  0  0  0
  8 17  1  0  0  0  0
 16 17  1  0  0  0  0
 17 18  2  0  0  0  0
 18 19  1  0  0  0  0
 19 20  2  0  0  0  0
 16 21  2  0  0  0  0
 20 21  1  0  0  0  0
 19 22  1  0  0  0  0
  9 23  1  0  0  0  0
 18 23  1  0  0  0  0
 13 24  1  0  0  0  0
 11 25  1  0  0  0  0
 25 26  2  0  0  0  0
 26 27  1  0  0  0  0
 27 28  2  0  0  0  0
 28 29  1  0  0  0  0
 25 30  1  0  0  0  0
 29 30  2  0  0  0  0
 10 31  1  0  0  0  0
 30 31  1  0  0  0  0
  3 33  1  0  0  0  0
  9 34  1  0  0  0  0
 14 35  1  0  0  0  0
 20 36  1  0  0  0  0
 21 37  1  0  0  0  0
 22 38  1  0  0  0  0
 24 39  1  0  0  0  0
 26 40  1  0  0  0  0
  1 41  1  0  0  0  0
 27 42  1  0  0  0  0
  1 43  1  0  0  0  0
 28 44  1  0  0  0  0
 29 45  1  0  0  0  0
  2 46  1  0  0  0  0
  2 47  1  0  0  0  0
  4 48  1  0  0  0  0
  4 49  1  0  0  0  0
  6 50  1  0  0  0  0
  6 51  1  0  0  0  0
  7 52  1  0  0  0  0
  7 53  1  0  0  0  0
 12 54  1  0  0  0  0
 12 55  1  0  0  0  0
 15 56  1  0  0  0  0
 15 57  1  0  0  0  0
M  END
$$$$
