8SI5
  PyMOL3.1          3D                             0

 57 63  0  0  0  0  0  0  0  0999 V2000
  156.5950   95.8520  122.4250 C   0  0  0  0  0  0  0  0  0  0  0  0
  155.1570   96.1940  122.4950 C   0  0  0  0  0  0  0  0  0  0  0  0
  155.9230   95.9630  123.7310 C   0  0  0  0  0  0  0  0  0  0  0  0
  156.2400   97.1410  124.5980 C   0  0  0  0  0  0  0  0  0  0  0  0
  155.0180   97.9340  124.9950 N   0  3  0  0  0  0  0  0  0  0  0  0
  155.4130   99.2920  125.5120 C   0  0  0  0  0  0  0  0  0  0  0  0
  154.3050  100.0580  126.2090 C   0  0  0  0  0  0  0  0  0  0  0  0
  153.5000   99.2080  127.2090 C   0  0  0  0  0  0  0  0  0  0  0  0
  153.1790   99.9610  128.5230 C   0  0  0  0  0  0  0  0  0  0  0  0
  152.9100   99.0380  129.6050 C   0  0  0  0  0  0  0  0  0  0  0  0
  152.9970   97.6960  129.5740 C   0  0  0  0  0  0  0  0  0  0  0  0
  153.3570   96.9450  128.3310 C   0  0  0  0  0  0  0  0  0  0  0  0
  154.1070   97.8010  127.3100 C   0  0  0  0  0  0  0  0  0  0  0  0
  154.0340   97.1900  125.8870 C   0  0  0  0  0  0  0  0  0  0  0  0
  152.6260   97.1260  125.2580 C   0  0  0  0  0  0  0  0  0  0  0  0
  151.6630   98.1700  125.7620 C   0  0  0  0  0  0  0  0  0  0  0  0
  152.1150   99.0720  126.6940 C   0  0  0  0  0  0  0  0  0  0  0  0
  151.3170  100.0200  127.2730 C   0  0  0  0  0  0  0  0  0  0  0  0
  149.9910  100.1320  126.9170 C   0  0  0  0  0  0  0  0  0  0  0  0
  149.5030   99.2460  125.9610 C   0  0  0  0  0  0  0  0  0  0  0  0
  150.3290   98.2910  125.3910 C   0  0  0  0  0  0  0  0  0  0  0  0
  149.1840  101.0470  127.4950 O   0  0  0  0  0  0  0  0  0  0  0  0
  151.9870  100.7630  128.2140 O   0  0  0  0  0  0  0  0  0  0  0  0
  155.4610   97.7390  127.7780 O   0  0  0  0  0  0  0  0  0  0  0  0
  152.6250   97.2420  130.8780 C   0  0  0  0  0  0  0  0  0  0  0  0
  152.5090   96.0020  131.4960 C   0  0  0  0  0  0  0  0  0  0  0  0
  152.0450   95.9360  132.7980 C   0  0  0  0  0  0  0  0  0  0  0  0
  151.7160   97.0890  133.4930 C   0  0  0  0  0  0  0  0  0  0  0  0
  151.8440   98.3310  132.8980 C   0  0  0  0  0  0  0  0  0  0  0  0
  152.3020   98.3770  131.6000 C   0  0  0  0  0  0  0  0  0  0  0  0
  152.4830   99.5020  130.8290 O   0  0  0  0  0  0  0  0  0  0  0  0
  154.6060   98.0780  124.2370 H   0  0  0  0  0  0  0  0  0  0  0  0
  155.7430   95.1400  124.2270 H   0  0  0  0  0  0  0  0  0  0  0  0
  153.8960  100.5620  128.7980 H   0  0  0  0  0  0  0  0  0  0  0  0
  154.3560   96.2750  125.9300 H   0  0  0  0  0  0  0  0  0  0  0  0
  148.5690   99.2890  125.6930 H   0  0  0  0  0  0  0  0  0  0  0  0
  149.9520   97.7020  124.7120 H   0  0  0  0  0  0  0  0  0  0  0  0
  148.4190  100.9530  127.1600 H   0  0  0  0  0  0  0  0  0  0  0  0
  155.7160   96.9330  127.7390 H   0  0  0  0  0  0  0  0  0  0  0  0
  152.7640   95.1820  131.0360 H   0  0  0  0  0  0  0  0  0  0  0  0
  157.2010   96.5550  122.1240 H   0  0  0  0  0  0  0  0  0  0  0  0
  151.9440   95.0680  133.2240 H   0  0  0  0  0  0  0  0  0  0  0  0
  156.8330   94.9610  122.1060 H   0  0  0  0  0  0  0  0  0  0  0  0
  151.3720   97.0310  134.4030 H   0  0  0  0  0  0  0  0  0  0  0  0
  151.6080   99.1470  133.3730 H   0  0  0  0  0  0  0  0  0  0  0  0
  154.5050   95.5300  122.1910 H   0  0  0  0  0  0  0  0  0  0  0  0
  154.8990   97.1190  122.3070 H   0  0  0  0  0  0  0  0  0  0  0  0
  156.8160   97.7550  124.1020 H   0  0  0  0  0  0  0  0  0  0  0  0
  156.7020   96.8500  125.4100 H   0  0  0  0  0  0  0  0  0  0  0  0
  155.6710   99.7780  124.7070 H   0  0  0  0  0  0  0  0  0  0  0  0
  156.2370   99.2170  126.0350 H   0  0  0  0  0  0  0  0  0  0  0  0
  154.6920  100.8350  126.6490 H   0  0  0  0  0  0  0  0  0  0  0  0
  153.7290  100.4170  125.5110 H   0  0  0  0  0  0  0  0  0  0  0  0
  153.9270   96.2010  128.5860 H   0  0  0  0  0  0  0  0  0  0  0  0
  152.5370   96.5570  127.9800 H   0  0  0  0  0  0  0  0  0  0  0  0
  152.2480   96.2580  125.4900 H   0  0  0  0  0  0  0  0  0  0  0  0
  152.6770   97.1690  124.2860 H   0  0  0  0  0  0  0  0  0  0  0  0
  1  2  1  0  0  0  0
  1  3  1  0  0  0  0
  2  3  1  0  0  0  0
  3  4  1  0  0  0  0
  4  5  1  0  0  0  0
  5  6  1  0  0  0  0
  6  7  1  0  0  0  0
  7  8  1  0  0  0  0
  8  9  1  0  0  0  0
  9 10  1  0  0  0  0
 10 11  2  0  0  0  0
 11 12  1  0  0  0  0
  8 13  1  0  0  0  0
 12 13  1  0  0  0  0
  5 14  1  0  0  0  0
 13 14  1  0  0  0  0
 14 15  1  0  0  0  0
 15 16  1  0  0  0  0
  8 17  1  0  0  0  0
 16 17  1  0  0  0  0
 17 18  2  0  0  0  0
 18 19  1  0  0  0  0
 19 20  2  0  0  0  0
 16 21  2  0  0  0  0
 20 21  1  0  0  0  0
 19 22  1  0  0  0  0
  9 23  1  0  0  0  0
 18 23  1  0  0  0  0
 13 24  1  0  0  0  0
 11 25  1  0  0  0  0
 25 26  2  0  0  0  0
 26 27  1  0  0  0  0
 27 28  2  0  0  0  0
 28 29  1  0  0  0  0
 25 30  1  0  0  0  0
 29 30  2  0  0  0  0
 10 31  1  0  0  0  0
 30 31  1  0  0  0  0
  3 33  1  0  0  0  0
  9 34  1  0  0  0  0
 14 35  1  0  0  0  0
 20 36  1  0  0  0  0
 21 37  1  0  0  0  0
 22 38  1  0  0  0  0
 24 39  1  0  0  0  0
 26 40  1  0  0  0  0
  1 41  1  0  0  0  0
 27 42  1  0  0  0  0
  1 43  1  0  0  0  0
 28 44  1  0  0  0  0
 29 45  1  0  0  0  0
  2 46  1  0  0  0  0
  2 47  1  0  0  0  0
  4 48  1  0  0  0  0
  4 49  1  0  0  0  0
  6 50  1  0  0  0  0
  6 51  1  0  0  0  0
  7 52  1  0  0  0  0
  7 53  1  0  0  0  0
 12 54  1  0  0  0  0
 12 55  1  0  0  0  0
 15 56  1  0  0  0  0
 15 57  1  0  0  0  0
M  END
$$$$
