7XZ6
  PyMOL3.1          3D                             0

 57 60  0  0  0  0  0  0  0  0999 V2000
   90.5640  119.1160   92.5930 C   0  0  0  0  0  0  0  0  0  0  0  0
   93.5710  118.6120   88.7760 N   0  0  0  0  0  0  0  0  0  0  0  0
   92.1890  118.8200   90.7830 O   0  0  0  0  0  0  0  0  0  0  0  0
   93.4150  111.3270   75.4980 S   0  0  0  0  0  0  0  0  0  0  0  0
   91.1780  119.7330   91.3070 C   0  0  0  0  0  0  0  0  0  0  0  0
   93.3180  115.0350   84.4980 N   0  0  0  0  0  0  0  0  0  0  0  0
   93.6850  120.4030   90.2270 O   0  0  0  0  0  0  0  0  0  0  0  0
   90.0910  119.8600   90.2320 C   0  0  0  0  0  0  0  0  0  0  0  0
   93.4290  113.7840   82.3800 N   0  0  0  0  0  0  0  0  0  0  0  0
   92.8190  117.3400   84.6260 O   0  0  0  0  0  0  0  0  0  0  0  0
   93.1710  119.3260   89.9430 C   0  0  0  0  0  0  0  0  0  0  0  0
   92.6370  116.5780   80.1910 N   0  0  0  0  0  0  0  0  0  0  0  0
   92.6600  111.7660   74.3740 O   0  0  0  0  0  0  0  0  0  0  0  0
   92.9550  117.2760   88.4920 C   0  0  0  0  0  0  0  0  0  0  0  0
   92.9500  115.2220   80.3660 N   0  0  0  0  0  0  0  0  0  0  0  0
   93.0470  110.0080   75.8810 O   0  0  0  0  0  0  0  0  0  0  0  0
   92.3620  117.1350   87.0570 C   0  0  0  0  0  0  0  0  0  0  0  0
   93.4040  117.4490   85.9620 C   0  0  0  0  0  0  0  0  0  0  0  0
   93.9970  118.8560   86.2860 C   0  0  0  0  0  0  0  0  0  0  0  0
   94.5490  119.0140   87.7550 C   0  0  0  0  0  0  0  0  0  0  0  0
   93.0100  116.2080   83.8750 C   0  0  0  0  0  0  0  0  0  0  0  0
   93.5070  113.9140   83.7270 C   0  0  0  0  0  0  0  0  0  0  0  0
   93.1180  114.9670   81.7550 C   0  0  0  0  0  0  0  0  0  0  0  0
   92.8990  116.2020   82.4570 C   0  0  0  0  0  0  0  0  0  0  0  0
   92.6050  117.1510   81.4110 C   0  0  0  0  0  0  0  0  0  0  0  0
   93.0640  114.3260   79.2220 C   0  0  0  0  0  0  0  0  0  0  0  0
   92.5090  112.9970   79.2740 C   0  0  0  0  0  0  0  0  0  0  0  0
   92.6290  112.1300   78.1570 C   0  0  0  0  0  0  0  0  0  0  0  0
   93.2720  112.4820   76.9580 C   0  0  0  0  0  0  0  0  0  0  0  0
   93.7980  113.7870   76.9580 C   0  0  0  0  0  0  0  0  0  0  0  0
   93.7100  114.6920   78.0390 C   0  0  0  0  0  0  0  0  0  0  0  0
   95.1130  111.2810   75.0190 C   0  0  0  0  0  0  0  0  0  0  0  0
   91.8970  112.6060   80.3540 F   0  0  0  0  0  0  0  0  0  0  0  0
   93.7040  116.4580   88.6720 H   0  0  0  0  0  0  0  0  0  0  0  0
   92.1140  117.0650   89.1830 H   0  0  0  0  0  0  0  0  0  0  0  0
   91.4800  117.8110   86.9710 H   0  0  0  0  0  0  0  0  0  0  0  0
   91.9600  116.1080   86.9650 H   0  0  0  0  0  0  0  0  0  0  0  0
   94.2600  116.7340   86.0180 H   0  0  0  0  0  0  0  0  0  0  0  0
   94.7650  119.1730   85.5510 H   0  0  0  0  0  0  0  0  0  0  0  0
   93.2010  119.6200   86.1540 H   0  0  0  0  0  0  0  0  0  0  0  0
   92.1700  111.1410   78.2960 H   0  0  0  0  0  0  0  0  0  0  0  0
   94.1380  115.7080   77.9940 H   0  0  0  0  0  0  0  0  0  0  0  0
   95.7570  112.1860   75.0170 H   0  0  0  0  0  0  0  0  0  0  0  0
   95.4080  110.8190   74.0580 H   0  0  0  0  0  0  0  0  0  0  0  0
   95.7710  110.6360   75.6570 H   0  0  0  0  0  0  0  0  0  0  0  0
   91.2690  119.0530   93.4530 H   0  0  0  0  0  0  0  0  0  0  0  0
   90.1700  118.0950   92.4780 H   0  0  0  0  0  0  0  0  0  0  0  0
   89.7160  119.6840   92.9860 H   0  0  0  0  0  0  0  0  0  0  0  0
   93.7560  112.9880   84.2920 H   0  0  0  0  0  0  0  0  0  0  0  0
   92.3860  118.1990   81.5590 H   0  0  0  0  0  0  0  0  0  0  0  0
   94.3240  114.1620   76.0640 H   0  0  0  0  0  0  0  0  0  0  0  0
   91.6390  120.7200   91.5860 H   0  0  0  0  0  0  0  0  0  0  0  0
   90.3780  120.5590   89.4350 H   0  0  0  0  0  0  0  0  0  0  0  0
   89.1510  120.2570   90.6410 H   0  0  0  0  0  0  0  0  0  0  0  0
   89.8170  118.9170   89.7310 H   0  0  0  0  0  0  0  0  0  0  0  0
   94.8860  120.0700   87.9300 H   0  0  0  0  0  0  0  0  0  0  0  0
   95.4750  118.4170   87.9050 H   0  0  0  0  0  0  0  0  0  0  0  0
  1  5  1  0  0  0  0
  3  5  1  0  0  0  0
  5  8  1  0  0  0  0
  2 11  1  0  0  0  0
  3 11  1  0  0  0  0
  7 11  2  0  0  0  0
  4 13  2  0  0  0  0
  2 14  1  0  0  0  0
 12 15  1  0  0  0  0
  4 16  2  0  0  0  0
 14 17  1  0  0  0  0
 10 18  1  0  0  0  0
 17 18  1  0  0  0  0
 18 19  1  0  0  0  0
  2 20  1  0  0  0  0
 19 20  1  0  0  0  0
  6 21  1  0  0  0  0
 10 21  1  0  0  0  0
  6 22  2  0  0  0  0
  9 22  1  0  0  0  0
  9 23  2  0  0  0  0
 15 23  1  0  0  0  0
 21 24  2  0  0  0  0
 23 24  1  0  0  0  0
 12 25  2  0  0  0  0
 24 25  1  0  0  0  0
 15 26  1  0  0  0  0
 26 27  1  0  0  0  0
 27 28  2  0  0  0  0
  4 29  1  0  0  0  0
 28 29  1  0  0  0  0
 29 30  2  0  0  0  0
 26 31  2  0  0  0  0
 30 31  1  0  0  0  0
  4 32  1  0  0  0  0
 27 33  1  0  0  0  0
 14 34  1  0  0  0  0
 14 35  1  0  0  0  0
 17 36  1  0  0  0  0
 17 37  1  0  0  0  0
 18 38  1  0  0  0  0
 19 39  1  0  0  0  0
 19 40  1  0  0  0  0
 28 41  1  0  0  0  0
 31 42  1  0  0  0  0
 32 43  1  0  0  0  0
 32 44  1  0  0  0  0
 32 45  1  0  0  0  0
  1 46  1  0  0  0  0
  1 47  1  0  0  0  0
  1 48  1  0  0  0  0
 22 49  1  0  0  0  0
 25 50  1  0  0  0  0
 30 51  1  0  0  0  0
  5 52  1  0  0  0  0
  8 53  1  0  0  0  0
  8 54  1  0  0  0  0
  8 55  1  0  0  0  0
 20 56  1  0  0  0  0
 20 57  1  0  0  0  0
M  END
$$$$
