8HVI
  PyMOL3.1          3D                             0

 26 28  0  0  0  0  0  0  0  0999 V2000
   55.8720   79.5200  133.1120 C   0  0  0  0  0  0  0  0  0  0  0  0
   59.8730   79.9590  127.3520 N   0  0  0  0  0  0  0  0  0  0  0  0
   59.1110   80.5540  129.9680 O   0  0  0  0  0  0  0  0  0  0  0  0
   56.0440   80.6260  133.9110 C   0  0  0  0  0  0  0  0  0  0  0  0
   58.2160   79.1730  126.0160 O   0  0  0  0  0  0  0  0  0  0  0  0
   56.8150   81.6770  133.4730 C   0  0  0  0  0  0  0  0  0  0  0  0
   64.3550   80.7940  124.3020 O   0  0  0  0  0  0  0  0  0  0  0  0
   57.4200   81.6270  132.2280 C   0  0  0  0  0  0  0  0  0  0  0  0
   66.7900   79.7840  123.2350 O   0  0  0  0  0  0  0  0  0  0  0  0
   57.2530   80.5150  131.4110 C   0  0  0  0  0  0  0  0  0  0  0  0
   65.4660   78.7660  121.7530 O   0  5  0  0  0  0  0  0  0  0  0  0
   56.4720   79.4590  131.8660 C   0  0  0  0  0  0  0  0  0  0  0  0
   57.9020   80.4580  130.0710 C   0  0  0  0  0  0  0  0  0  0  0  0
   57.0330   80.2800  128.8520 C   0  0  0  0  0  0  0  0  0  0  0  0
   57.6710   80.8900  127.6100 C   0  0  0  0  0  0  0  0  0  0  0  0
   58.5980   79.9280  126.9110 C   0  0  0  0  0  0  0  0  0  0  0  0
   61.0270   80.2040  126.5750 C   0  0  0  0  0  0  0  0  0  0  0  0
   61.5880   81.4850  126.5810 C   0  0  0  0  0  0  0  0  0  0  0  0
   62.7180   81.7640  125.8360 C   0  0  0  0  0  0  0  0  0  0  0  0
   63.2460   80.7250  125.1010 C   0  0  0  0  0  0  0  0  0  0  0  0
   62.7050   79.4470  125.0790 C   0  0  0  0  0  0  0  0  0  0  0  0
   61.5690   79.1790  125.8330 C   0  0  0  0  0  0  0  0  0  0  0  0
   64.5170   79.5280  123.7630 C   0  0  0  0  0  0  0  0  0  0  0  0
   63.5470   78.6780  124.2010 C   0  0  0  0  0  0  0  0  0  0  0  0
   63.3560   77.2370  123.8670 C   0  0  0  0  0  0  0  0  0  0  0  0
   65.6730   79.3470  122.8510 C   0  0  0  0  0  0  0  0  0  0  0  0
  1  4  2  0  0  0  0
  4  6  1  0  0  0  0
  6  8  2  0  0  0  0
  8 10  1  0  0  0  0
  1 12  1  0  0  0  0
 10 12  2  0  0  0  0
  3 13  2  0  0  0  0
 10 13  1  0  0  0  0
 13 14  1  0  0  0  0
 14 15  1  0  0  0  0
  2 16  1  0  0  0  0
  5 16  2  0  0  0  0
 15 16  1  0  0  0  0
  2 17  1  0  0  0  0
 17 18  1  0  0  0  0
 18 19  2  0  0  0  0
  7 20  1  0  0  0  0
 19 20  1  0  0  0  0
 20 21  2  0  0  0  0
 17 22  2  0  0  0  0
 21 22  1  0  0  0  0
  7 23  1  0  0  0  0
 21 24  1  0  0  0  0
 23 24  2  0  0  0  0
 24 25  1  0  0  0  0
  9 26  1  0  0  0  0
 11 26  2  0  0  0  0
 23 26  1  0  0  0  0
M  END
$$$$
