8TZ1
  PyMOL3.1          3D                             0

 29 30  0  0  0  0  0  0  0  0999 V2000
  147.8700  152.7430  139.7680 C   0  0  0  0  0  0  0  0  0  0  0  0
  146.6580  153.3380  140.2100 O   0  0  0  0  0  0  0  0  0  0  0  0
  147.6870  152.2950  138.3240 C   0  0  0  0  0  0  0  0  0  0  0  0
  146.4940  151.8970  138.1440 O   0  0  0  0  0  0  0  0  0  0  0  0
  147.8800  153.5990  137.3080 C   0  0  0  0  0  0  0  0  0  0  0  0
  149.3640  153.8330  137.0330 O   0  0  0  0  0  0  0  0  0  0  0  0
  147.3160  153.2900  136.2860 C   0  0  0  0  0  0  0  0  0  0  0  0
  148.3320  152.6080  135.3390 O   0  0  0  0  0  0  0  0  0  0  0  0
  146.1840  152.2510  136.7240 C   0  0  0  0  0  0  0  0  0  0  0  0
  144.9780  152.8050  136.6420 N   0  0  0  0  0  0  0  0  0  0  0  0
  144.3240  153.0880  135.4740 N   0  0  0  0  0  0  0  0  0  0  0  0
  143.1850  153.6150  135.7790 C   0  0  0  0  0  0  0  0  0  0  0  0
  140.8190  154.5610  135.2800 N   0  0  0  0  0  0  0  0  0  0  0  0
  142.3060  154.0870  133.6090 O   0  0  0  0  0  0  0  0  0  0  0  0
  143.0980  153.6710  137.1210 N   0  0  0  0  0  0  0  0  0  0  0  0
  144.2280  153.1600  137.6330 C   0  0  0  0  0  0  0  0  0  0  0  0
  142.0970  154.0990  134.7730 C   0  0  0  0  0  0  0  0  0  0  0  0
  140.1080  154.8740  134.6410 H   0  0  0  0  0  0  0  0  0  0  0  0
  140.6460  154.5690  136.2720 H   0  0  0  0  0  0  0  0  0  0  0  0
  147.9060  152.4020  134.5290 H   0  0  0  0  0  0  0  0  0  0  0  0
  149.4760  154.6490  136.5520 H   0  0  0  0  0  0  0  0  0  0  0  0
  145.9580  152.6620  140.2590 H   0  0  0  0  0  0  0  0  0  0  0  0
  144.4580  153.0650  138.6550 H   0  0  0  0  0  0  0  0  0  0  0  0
  146.2250  151.3580  136.0940 H   0  0  0  0  0  0  0  0  0  0  0  0
  146.8660  154.1760  135.8000 H   0  0  0  0  0  0  0  0  0  0  0  0
  147.4320  154.4820  137.7520 H   0  0  0  0  0  0  0  0  0  0  0  0
  148.3660  151.5410  138.0760 H   0  0  0  0  0  0  0  0  0  0  0  0
  148.6900  153.4900  139.8260 H   0  0  0  0  0  0  0  0  0  0  0  0
  148.1070  151.8750  140.3930 H   0  0  0  0  0  0  0  0  0  0  0  0
  1  2  1  0  0  0  0
  1  3  1  0  0  0  0
  3  4  1  0  0  0  0
  3  5  1  0  0  0  0
  5  6  1  0  0  0  0
  5  7  1  0  0  0  0
  7  8  1  0  0  0  0
  4  9  1  0  0  0  0
  7  9  1  0  0  0  0
  9 10  1  0  0  0  0
 10 11  1  0  0  0  0
 11 12  2  0  0  0  0
 12 15  1  0  0  0  0
 10 16  1  0  0  0  0
 15 16  2  0  0  0  0
 12 17  1  0  0  0  0
 13 17  1  0  0  0  0
 14 17  2  0  0  0  0
 13 18  1  0  0  0  0
 13 19  1  0  0  0  0
  8 20  1  0  0  0  0
  6 21  1  0  0  0  0
  2 22  1  0  0  0  0
 16 23  1  0  0  0  0
  9 24  1  0  0  0  0
  7 25  1  0  0  0  0
  5 26  1  0  0  0  0
  3 27  1  0  0  0  0
  1 28  1  0  0  0  0
  1 29  1  0  0  0  0
M  END
$$$$
