8TZ1
  PyMOL3.1          3D                             0

 29 30  0  0  0  0  0  0  0  0999 V2000
  145.9240  122.6460  139.7720 C   0  0  0  0  0  0  0  0  0  0  0  0
  147.0410  123.4040  140.2140 O   0  0  0  0  0  0  0  0  0  0  0  0
  145.6260  123.0250  138.3280 C   0  0  0  0  0  0  0  0  0  0  0  0
  145.8720  124.2580  138.1460 O   0  0  0  0  0  0  0  0  0  0  0  0
  146.6630  122.2100  137.3130 C   0  0  0  0  0  0  0  0  0  0  0  0
  146.1310  120.8050  137.0400 O   0  0  0  0  0  0  0  0  0  0  0  0
  146.6750  122.8520  136.2910 C   0  0  0  0  0  0  0  0  0  0  0  0
  145.5800  122.3070  135.3440 O   0  0  0  0  0  0  0  0  0  0  0  0
  146.3340  124.3500  136.7270 C   0  0  0  0  0  0  0  0  0  0  0  0
  147.4130  125.1230  136.6440 N   0  0  0  0  0  0  0  0  0  0  0  0
  147.9840  125.5490  135.4760 N   0  0  0  0  0  0  0  0  0  0  0  0
  149.0070  126.2770  135.7810 C   0  0  0  0  0  0  0  0  0  0  0  0
  151.0020  127.8620  135.2810 N   0  0  0  0  0  0  0  0  0  0  0  0
  149.8540  126.8040  133.6110 O   0  0  0  0  0  0  0  0  0  0  0  0
  149.0980  126.3260  137.1230 N   0  0  0  0  0  0  0  0  0  0  0  0
  148.0930  125.5990  137.6350 C   0  0  0  0  0  0  0  0  0  0  0  0
  149.9670  126.9810  134.7750 C   0  0  0  0  0  0  0  0  0  0  0  0
  151.6260  128.3230  134.6420 H   0  0  0  0  0  0  0  0  0  0  0  0
  151.0940  128.0090  136.2730 H   0  0  0  0  0  0  0  0  0  0  0  0
  145.6130  122.7780  134.5330 H   0  0  0  0  0  0  0  0  0  0  0  0
  146.7840  120.3020  136.5600 H   0  0  0  0  0  0  0  0  0  0  0  0
  146.8010  124.3470  140.2620 H   0  0  0  0  0  0  0  0  0  0  0  0
  147.8960  125.4480  138.6570 H   0  0  0  0  0  0  0  0  0  0  0  0
  145.5390  124.7570  136.0960 H   0  0  0  0  0  0  0  0  0  0  0  0
  147.6680  122.8030  135.8050 H   0  0  0  0  0  0  0  0  0  0  0  0
  147.6520  122.1620  137.7580 H   0  0  0  0  0  0  0  0  0  0  0  0
  144.6350  122.8090  138.0790 H   0  0  0  0  0  0  0  0  0  0  0  0
  146.1660  121.5640  139.8320 H   0  0  0  0  0  0  0  0  0  0  0  0
  145.0520  122.8710  140.3970 H   0  0  0  0  0  0  0  0  0  0  0  0
  1  2  1  0  0  0  0
  1  3  1  0  0  0  0
  3  4  1  0  0  0  0
  3  5  1  0  0  0  0
  5  6  1  0  0  0  0
  5  7  1  0  0  0  0
  7  8  1  0  0  0  0
  4  9  1  0  0  0  0
  7  9  1  0  0  0  0
  9 10  1  0  0  0  0
 10 11  1  0  0  0  0
 11 12  2  0  0  0  0
 12 15  1  0  0  0  0
 10 16  1  0  0  0  0
 15 16  2  0  0  0  0
 12 17  1  0  0  0  0
 13 17  1  0  0  0  0
 14 17  2  0  0  0  0
 13 18  1  0  0  0  0
 13 19  1  0  0  0  0
  8 20  1  0  0  0  0
  6 21  1  0  0  0  0
  2 22  1  0  0  0  0
 16 23  1  0  0  0  0
  9 24  1  0  0  0  0
  7 25  1  0  0  0  0
  5 26  1  0  0  0  0
  3 27  1  0  0  0  0
  1 28  1  0  0  0  0
  1 29  1  0  0  0  0
M  END
$$$$
