7ZEH
  PyMOL3.1          3D                             0

 20 22  0  0  0  0  0  0  0  0999 V2000
   66.8773   25.7006  -10.1391 C   0  0  0  0  0  0  0  0  0  0  0  0
   65.5948   25.9942   -6.8477 N   0  0  0  0  0  0  0  0  0  0  0  0
   64.1446   24.5693  -12.1210 C   0  0  0  0  0  0  0  0  0  0  0  0
   66.1841   25.3130  -13.3121 C   0  0  0  0  0  0  0  0  0  0  0  0
   64.4898   25.2604   -8.7319 N   0  0  0  0  0  0  0  0  0  0  0  0
   64.6191   25.0377  -10.0447 C   0  0  0  0  0  0  0  0  0  0  0  0
   66.8013   25.9403   -8.8198 N   0  0  0  0  0  0  0  0  0  0  0  0
   64.9752   27.1165  -14.5923 C   0  0  0  0  0  0  0  0  0  0  0  0
   65.6348   25.7112   -8.1742 C   0  0  0  0  0  0  0  0  0  0  0  0
   67.9558   25.9254  -10.7018 O   0  5  0  0  0  0  0  0  0  0  0  0
   65.9435   26.7657  -13.6593 C   0  0  0  0  0  0  0  0  0  0  0  0
   65.4037   24.9808  -12.1153 N   0  0  0  0  0  0  0  0  0  0  0  0
   65.7473   25.2327  -10.7870 C   0  0  0  0  0  0  0  0  0  0  0  0
   64.7400   28.4564  -14.8838 C   0  0  0  0  0  0  0  0  0  0  0  0
   63.6549   24.6121  -10.8950 N   0  0  0  0  0  0  0  0  0  0  0  0
   65.4625   29.4107  -14.2197 C   0  0  0  0  0  0  0  0  0  0  0  0
   66.3982   29.0610  -13.2887 C   0  0  0  0  0  0  0  0  0  0  0  0
   66.6329   27.7511  -12.9772 C   0  0  0  0  0  0  0  0  0  0  0  0
   65.2684   30.7156  -14.4781 F   0  0  0  0  0  0  0  0  0  0  0  0
   67.0901   30.0311  -12.6582 F   0  0  0  0  0  0  0  0  0  0  0  0
  5  6  1  0  0  0  0
  1  7  2  0  0  0  0
  2  9  1  0  0  0  0
  5  9  2  0  0  0  0
  7  9  1  0  0  0  0
  1 10  1  0  0  0  0
  4 11  1  0  0  0  0
  8 11  1  0  0  0  0
  3 12  2  0  0  0  0
  4 12  1  0  0  0  0
  1 13  1  0  0  0  0
  6 13  2  0  0  0  0
 12 13  1  0  0  0  0
  8 14  2  0  0  0  0
  3 15  1  0  0  0  0
  6 15  1  0  0  0  0
 14 16  1  0  0  0  0
 16 17  2  0  0  0  0
 11 18  2  0  0  0  0
 17 18  1  0  0  0  0
 16 19  1  0  0  0  0
 17 20  1  0  0  0  0
M  END
$$$$
