7ZEH
  PyMOL3.1          3D                             0

 20 22  0  0  0  0  0  0  0  0999 V2000
   38.5003   -2.2311   -0.3196 C   0  0  0  0  0  0  0  0  0  0  0  0
   37.9668    1.2607   -0.2781 N   0  0  0  0  0  0  0  0  0  0  0  0
   35.4831   -3.7128    0.8551 C   0  0  0  0  0  0  0  0  0  0  0  0
   37.2052   -5.1914   -0.1666 C   0  0  0  0  0  0  0  0  0  0  0  0
   36.4975   -0.3940    0.3868 N   0  0  0  0  0  0  0  0  0  0  0  0
   36.3451   -1.7275    0.4938 C   0  0  0  0  0  0  0  0  0  0  0  0
   38.6993   -0.9159   -0.4469 N   0  0  0  0  0  0  0  0  0  0  0  0
   35.7098   -5.9519   -2.0491 C   0  0  0  0  0  0  0  0  0  0  0  0
   37.7154   -0.0519   -0.0905 C   0  0  0  0  0  0  0  0  0  0  0  0
   39.4237   -2.9733   -0.6328 O   0  5  0  0  0  0  0  0  0  0  0  0
   36.8779   -5.3165   -1.6461 C   0  0  0  0  0  0  0  0  0  0  0  0
   36.6869   -3.9177    0.3459 N   0  0  0  0  0  0  0  0  0  0  0  0
   37.2779   -2.6706    0.1679 C   0  0  0  0  0  0  0  0  0  0  0  0
   35.3563   -6.0529   -3.3892 C   0  0  0  0  0  0  0  0  0  0  0  0
   35.2529   -2.4159    0.9368 N   0  0  0  0  0  0  0  0  0  0  0  0
   36.1939   -5.5048   -4.3183 C   0  0  0  0  0  0  0  0  0  0  0  0
   37.3452   -4.8767   -3.9361 C   0  0  0  0  0  0  0  0  0  0  0  0
   37.7033   -4.7655   -2.6119 C   0  0  0  0  0  0  0  0  0  0  0  0
   35.8832   -5.5895   -5.6359 F   0  0  0  0  0  0  0  0  0  0  0  0
   38.1492   -4.3510   -4.8845 F   0  0  0  0  0  0  0  0  0  0  0  0
  5  6  1  0  0  0  0
  1  7  2  0  0  0  0
  2  9  1  0  0  0  0
  5  9  2  0  0  0  0
  7  9  1  0  0  0  0
  1 10  1  0  0  0  0
  4 11  1  0  0  0  0
  8 11  1  0  0  0  0
  3 12  2  0  0  0  0
  4 12  1  0  0  0  0
  1 13  1  0  0  0  0
  6 13  2  0  0  0  0
 12 13  1  0  0  0  0
  8 14  2  0  0  0  0
  3 15  1  0  0  0  0
  6 15  1  0  0  0  0
 14 16  1  0  0  0  0
 16 17  2  0  0  0  0
 11 18  2  0  0  0  0
 17 18  1  0  0  0  0
 16 19  1  0  0  0  0
 17 20  1  0  0  0  0
M  END
$$$$
