7ZEH
  PyMOL3.1          3D                             0

 20 22  0  0  0  0  0  0  0  0999 V2000
   61.5660    9.1925   30.0508 C   0  0  0  0  0  0  0  0  0  0  0  0
   60.2531    8.9025   26.7765 N   0  0  0  0  0  0  0  0  0  0  0  0
   58.8983   10.3878   32.0618 C   0  0  0  0  0  0  0  0  0  0  0  0
   60.9367    9.5637   33.2239 C   0  0  0  0  0  0  0  0  0  0  0  0
   59.1552    9.6379   28.6696 N   0  0  0  0  0  0  0  0  0  0  0  0
   59.3105    9.8649   29.9839 C   0  0  0  0  0  0  0  0  0  0  0  0
   61.4720    8.9412   28.7338 N   0  0  0  0  0  0  0  0  0  0  0  0
   59.7647    7.7236   34.5015 C   0  0  0  0  0  0  0  0  0  0  0  0
   60.2981    9.1803   28.1007 C   0  0  0  0  0  0  0  0  0  0  0  0
   62.6401    9.0051   30.5893 O   0  5  0  0  0  0  0  0  0  0  0  0
   60.7211    8.1008   33.5667 C   0  0  0  0  0  0  0  0  0  0  0  0
   60.1424    9.9344   32.0401 N   0  0  0  0  0  0  0  0  0  0  0  0
   60.4557    9.6743   30.7057 C   0  0  0  0  0  0  0  0  0  0  0  0
   59.5478    6.3748   34.7906 C   0  0  0  0  0  0  0  0  0  0  0  0
   58.3754   10.3314   30.8528 N   0  0  0  0  0  0  0  0  0  0  0  0
   60.2824    5.4287   34.1225 C   0  0  0  0  0  0  0  0  0  0  0  0
   61.2067    5.8051   33.1872 C   0  0  0  0  0  0  0  0  0  0  0  0
   61.4302    7.1237   32.8908 C   0  0  0  0  0  0  0  0  0  0  0  0
   60.1055    4.1091   34.3738 F   0  0  0  0  0  0  0  0  0  0  0  0
   61.9125    4.8535   32.5410 F   0  0  0  0  0  0  0  0  0  0  0  0
  5  6  1  0  0  0  0
  1  7  2  0  0  0  0
  2  9  1  0  0  0  0
  5  9  2  0  0  0  0
  7  9  1  0  0  0  0
  1 10  1  0  0  0  0
  4 11  1  0  0  0  0
  8 11  1  0  0  0  0
  3 12  2  0  0  0  0
  4 12  1  0  0  0  0
  1 13  1  0  0  0  0
  6 13  2  0  0  0  0
 12 13  1  0  0  0  0
  8 14  2  0  0  0  0
  3 15  1  0  0  0  0
  6 15  1  0  0  0  0
 14 16  1  0  0  0  0
 16 17  2  0  0  0  0
 11 18  2  0  0  0  0
 17 18  1  0  0  0  0
 16 19  1  0  0  0  0
 17 20  1  0  0  0  0
M  END
$$$$
