7UY0
  PyMOL3.1          3D                             0

 36 41  0  0  0  0  0  0  0  0999 V2000
   45.9790   14.4210   21.5070 C   0  0  0  0  0  0  0  0  0  0  0  0
   44.6200   14.6760   21.6960 C   0  0  0  0  0  0  0  0  0  0  0  0
   43.6210   14.4550   20.6910 C   0  0  0  0  0  0  0  0  0  0  0  0
   43.3960   13.2160   20.0470 C   0  0  0  0  0  0  0  0  0  0  0  0
   42.4100   13.1210   19.0300 C   0  0  0  0  0  0  0  0  0  0  0  0
   41.6740   14.2590   18.6620 C   0  0  0  0  0  0  0  0  0  0  0  0
   41.9220   15.4880   19.2780 C   0  0  0  0  0  0  0  0  0  0  0  0
   42.8990   15.5790   20.2850 C   0  0  0  0  0  0  0  0  0  0  0  0
   48.1520   14.6530   22.7660 C   0  0  0  0  0  0  0  0  0  0  0  0
   48.3330   13.1360   23.0760 C   0  0  0  0  0  0  0  0  0  0  0  0
   49.8250   12.6800   23.1520 C   0  0  0  0  0  0  0  0  0  0  0  0
   50.7610   13.7190   22.5010 C   0  0  0  0  0  0  0  0  0  0  0  0
   50.1120   14.1900   21.1910 C   0  0  0  0  0  0  0  0  0  0  0  0
   49.0140   15.1780   21.5990 C   0  0  0  0  0  0  0  0  0  0  0  0
   52.1500   11.8390   22.2460 C   0  0  0  0  0  0  0  0  0  0  0  0
   53.6410   11.4730   22.1320 C   0  0  0  0  0  0  0  0  0  0  0  0
   46.6460   14.7720   22.6150 N   0  0  0  0  0  0  0  0  0  0  0  0
   42.1060   15.7480   23.2960 N   0  0  0  0  0  0  0  0  0  0  0  0
   51.9680   13.1940   22.5150 N   0  0  0  0  0  0  0  0  0  0  0  0
   54.3920   12.0400   23.1260 N   0  0  0  0  0  0  0  0  0  0  0  0
   54.2460   13.4040   23.1970 C   0  0  0  0  0  0  0  0  0  0  0  0
   52.7720   13.7590   23.4460 C   0  0  0  0  0  0  0  0  0  0  0  0
   55.6360   11.7200   23.0640 C   0  0  0  0  0  0  0  0  0  0  0  0
   39.8230   13.1780   17.4460 C   0  0  0  0  0  0  0  0  0  0  0  0
   39.1140   12.6320   18.5200 C   0  0  0  0  0  0  0  0  0  0  0  0
   38.2620   11.5650   18.2910 C   0  0  0  0  0  0  0  0  0  0  0  0
   38.1040   11.0550   17.0000 C   0  0  0  0  0  0  0  0  0  0  0  0
   38.8070   11.6170   15.9260 C   0  0  0  0  0  0  0  0  0  0  0  0
   39.6590   12.6790   16.1500 C   0  0  0  0  0  0  0  0  0  0  0  0
   40.6740   14.2800   17.6150 O   0  0  0  0  0  0  0  0  0  0  0  0
   43.7070   16.2350   25.0090 N   0  0  0  0  0  0  0  0  0  0  0  0
   44.9670   16.2540   25.4860 C   0  0  0  0  0  0  0  0  0  0  0  0
   45.9810   15.8070   24.7830 N   0  0  0  0  0  0  0  0  0  0  0  0
   45.7910   15.3040   23.5280 C   0  0  0  0  0  0  0  0  0  0  0  0
   44.5040   15.2690   22.9930 C   0  0  0  0  0  0  0  0  0  0  0  0
   43.4550   15.7570   23.7830 C   0  0  0  0  0  0  0  0  0  0  0  0
  1  2  2  0  0  0  0
  2  3  1  0  0  0  0
  3  4  2  0  0  0  0
  4  5  1  0  0  0  0
  5  6  2  0  0  0  0
  6  7  1  0  0  0  0
  3  8  1  0  0  0  0
  7  8  2  0  0  0  0
  9 10  1  0  0  0  0
 10 11  1  0  0  0  0
 11 12  1  0  0  0  0
 12 13  1  0  0  0  0
  9 14  1  0  0  0  0
 13 14  1  0  0  0  0
 15 16  1  0  0  0  0
  1 17  1  0  0  0  0
  9 17  1  0  0  0  0
 12 19  1  0  0  0  0
 15 19  1  0  0  0  0
 16 20  1  0  0  0  0
 20 21  1  0  0  0  0
 19 22  1  0  0  0  0
 21 22  1  0  0  0  0
 20 23  1  0  0  0  0
 24 25  2  0  0  0  0
 25 26  1  0  0  0  0
 26 27  2  0  0  0  0
 27 28  1  0  0  0  0
 24 29  1  0  0  0  0
 28 29  2  0  0  0  0
  6 30  1  0  0  0  0
 24 30  1  0  0  0  0
 31 32  1  0  0  0  0
 32 33  2  0  0  0  0
 17 34  1  0  0  0  0
 33 34  1  0  0  0  0
  2 35  1  0  0  0  0
 34 35  2  0  0  0  0
 18 36  1  0  0  0  0
 31 36  2  0  0  0  0
 35 36  1  0  0  0  0
M  END
$$$$
