7UY0
  PyMOL3.1          3D                             0

 36 41  0  0  0  0  0  0  0  0999 V2000
   36.9130   -0.6080  -12.7050 C   0  0  0  0  0  0  0  0  0  0  0  0
   36.6580   -0.6360  -14.0840 C   0  0  0  0  0  0  0  0  0  0  0  0
   37.3840    0.1350  -15.0510 C   0  0  0  0  0  0  0  0  0  0  0  0
   36.6540    0.9170  -15.9640 C   0  0  0  0  0  0  0  0  0  0  0  0
   37.3330    1.7130  -16.9070 C   0  0  0  0  0  0  0  0  0  0  0  0
   38.7380    1.7380  -16.9340 C   0  0  0  0  0  0  0  0  0  0  0  0
   39.4770    0.9860  -16.0040 C   0  0  0  0  0  0  0  0  0  0  0  0
   38.7890    0.1850  -15.0580 C   0  0  0  0  0  0  0  0  0  0  0  0
   35.9660   -1.6870  -10.6140 C   0  0  0  0  0  0  0  0  0  0  0  0
   36.0670   -0.2500  -10.0590 C   0  0  0  0  0  0  0  0  0  0  0  0
   36.1290   -0.2640   -8.5080 C   0  0  0  0  0  0  0  0  0  0  0  0
   37.2380   -1.1980   -7.9670 C   0  0  0  0  0  0  0  0  0  0  0  0
   37.0990   -2.6240   -8.5310 C   0  0  0  0  0  0  0  0  0  0  0  0
   37.0640   -2.5960  -10.0600 C   0  0  0  0  0  0  0  0  0  0  0  0
   38.2820   -1.6100   -6.1000 C   0  0  0  0  0  0  0  0  0  0  0  0
   38.2640   -1.6520   -4.5650 C   0  0  0  0  0  0  0  0  0  0  0  0
   36.0200   -1.3910  -12.0890 N   0  0  0  0  0  0  0  0  0  0  0  0
   35.0040   -1.5760  -16.7010 N   0  0  0  0  0  0  0  0  0  0  0  0
   37.1570   -1.0120   -6.6670 N   0  0  0  0  0  0  0  0  0  0  0  0
   37.1020   -2.1920   -4.0950 N   0  0  0  0  0  0  0  0  0  0  0  0
   35.9870   -1.5740   -4.6200 C   0  0  0  0  0  0  0  0  0  0  0  0
   36.0100   -1.5310   -6.1610 C   0  0  0  0  0  0  0  0  0  0  0  0
   37.0640   -2.1690   -2.8080 C   0  0  0  0  0  0  0  0  0  0  0  0
   40.4740    2.1650  -18.6520 C   0  0  0  0  0  0  0  0  0  0  0  0
   40.4890    0.9130  -19.2740 C   0  0  0  0  0  0  0  0  0  0  0  0
   41.5970    0.5400  -20.0220 C   0  0  0  0  0  0  0  0  0  0  0  0
   42.6790    1.4160  -20.1580 C   0  0  0  0  0  0  0  0  0  0  0  0
   42.6520    2.6760  -19.5430 C   0  0  0  0  0  0  0  0  0  0  0  0
   41.5530    3.0520  -18.8020 C   0  0  0  0  0  0  0  0  0  0  0  0
   39.3630    2.6090  -17.9100 O   0  0  0  0  0  0  0  0  0  0  0  0
   33.7500   -2.8070  -15.1150 N   0  0  0  0  0  0  0  0  0  0  0  0
   33.4610   -3.2160  -13.8710 C   0  0  0  0  0  0  0  0  0  0  0  0
   34.1440   -2.8100  -12.8360 N   0  0  0  0  0  0  0  0  0  0  0  0
   35.1850   -1.9490  -12.9950 C   0  0  0  0  0  0  0  0  0  0  0  0
   35.5310   -1.4970  -14.2680 C   0  0  0  0  0  0  0  0  0  0  0  0
   34.7610   -1.9660  -15.3440 C   0  0  0  0  0  0  0  0  0  0  0  0
  1  2  2  0  0  0  0
  2  3  1  0  0  0  0
  3  4  2  0  0  0  0
  4  5  1  0  0  0  0
  5  6  2  0  0  0  0
  6  7  1  0  0  0  0
  3  8  1  0  0  0  0
  7  8  2  0  0  0  0
  9 10  1  0  0  0  0
 10 11  1  0  0  0  0
 11 12  1  0  0  0  0
 12 13  1  0  0  0  0
  9 14  1  0  0  0  0
 13 14  1  0  0  0  0
 15 16  1  0  0  0  0
  1 17  1  0  0  0  0
  9 17  1  0  0  0  0
 12 19  1  0  0  0  0
 15 19  1  0  0  0  0
 16 20  1  0  0  0  0
 20 21  1  0  0  0  0
 19 22  1  0  0  0  0
 21 22  1  0  0  0  0
 20 23  1  0  0  0  0
 24 25  2  0  0  0  0
 25 26  1  0  0  0  0
 26 27  2  0  0  0  0
 27 28  1  0  0  0  0
 24 29  1  0  0  0  0
 28 29  2  0  0  0  0
  6 30  1  0  0  0  0
 24 30  1  0  0  0  0
 31 32  1  0  0  0  0
 32 33  2  0  0  0  0
 17 34  1  0  0  0  0
 33 34  1  0  0  0  0
  2 35  1  0  0  0  0
 34 35  2  0  0  0  0
 18 36  1  0  0  0  0
 31 36  2  0  0  0  0
 35 36  1  0  0  0  0
M  END
$$$$
