8XLR
  PyMOL3.1          3D                             0

 28 29  0  0  0  0  0  0  0  0999 V2000
  175.1730  155.4860  179.6870 C   0  0  0  0  0  0  0  0  0  0  0  0
  173.7430  155.7530  179.3120 C   0  0  0  0  0  0  0  0  0  0  0  0
  172.9950  155.6850  180.5000 O   0  0  0  0  0  0  0  0  0  0  0  0
  171.8250  155.0290  180.4190 C   0  0  0  0  0  0  0  0  0  0  0  0
  170.8120  155.3090  179.4940 C   0  0  0  0  0  0  0  0  0  0  0  0
  169.6520  154.5540  179.4820 C   0  0  0  0  0  0  0  0  0  0  0  0
  169.5000  153.5290  180.4080 C   0  0  0  0  0  0  0  0  0  0  0  0
  170.5040  153.2580  181.3320 C   0  0  0  0  0  0  0  0  0  0  0  0
  171.6780  154.0140  181.3230 C   0  0  0  0  0  0  0  0  0  0  0  0
  172.6820  153.7790  182.1620 O   0  0  0  0  0  0  0  0  0  0  0  0
  173.5070  152.6830  181.8540 C   0  0  0  0  0  0  0  0  0  0  0  0
  173.5600  151.7230  183.0860 C   0  0  0  0  0  0  0  0  0  0  0  0
  174.8600  151.1760  183.3440 N   0  0  0  0  0  0  0  0  0  0  0  0
  175.4110  151.5270  184.6630 C   0  0  0  0  0  0  0  0  0  0  0  0
  176.9090  151.1510  184.7410 C   0  0  0  0  0  0  0  0  0  0  0  0
  177.4380  150.2340  185.8040 C   0  0  0  0  0  0  0  0  0  0  0  0
  178.7730  150.2000  186.1340 C   0  0  0  0  0  0  0  0  0  0  0  0
  179.2730  149.3520  187.1040 C   0  0  0  0  0  0  0  0  0  0  0  0
  178.4310  148.4810  187.7550 C   0  0  0  0  0  0  0  0  0  0  0  0
  177.0890  148.4610  187.4380 C   0  0  0  0  0  0  0  0  0  0  0  0
  176.6640  149.3680  186.4740 C   0  0  0  0  0  0  0  0  0  0  0  0
  175.9740  147.5080  188.1210 S   0  0  0  0  0  0  0  0  0  0  0  0
  176.4590  146.8180  189.2050 O   0  0  0  0  0  0  0  0  0  0  0  0
  174.8560  148.3510  188.1390 O   0  0  0  0  0  0  0  0  0  0  0  0
  175.5820  146.2800  187.2060 N   0  0  0  0  0  0  0  0  0  0  0  0
  178.9250  147.6300  188.7410 O   0  0  0  0  0  0  0  0  0  0  0  0
  179.5790  146.4110  188.3790 C   0  0  0  0  0  0  0  0  0  0  0  0
  175.2780  153.0230  184.8200 C   0  0  0  0  0  0  0  0  0  0  0  0
  1  2  1  0  0  0  0
  2  3  1  0  0  0  0
  3  4  1  0  0  0  0
  4  5  2  0  0  0  0
  5  6  1  0  0  0  0
  6  7  2  0  0  0  0
  7  8  1  0  0  0  0
  4  9  1  0  0  0  0
  8  9  2  0  0  0  0
  9 10  1  0  0  0  0
 10 11  1  0  0  0  0
 11 12  1  0  0  0  0
 12 13  1  0  0  0  0
 13 14  1  0  0  0  0
 14 15  1  0  0  0  0
 15 16  1  0  0  0  0
 16 17  2  0  0  0  0
 17 18  1  0  0  0  0
 18 19  2  0  0  0  0
 19 20  1  0  0  0  0
 16 21  1  0  0  0  0
 20 21  2  0  0  0  0
 20 22  1  0  0  0  0
 22 23  2  0  0  0  0
 22 24  2  0  0  0  0
 22 25  1  0  0  0  0
 19 26  1  0  0  0  0
 26 27  1  0  0  0  0
 14 28  1  0  0  0  0
M  END
$$$$
