8GOE
  PyMOL3.1          3D                             0

 33 35  0  0  0  0  0  0  0  0999 V2000
  158.1690  165.5910  157.5590 N   0  0  0  0  0  0  0  0  0  0  0  0
  158.7770  165.4110  158.8860 C   0  0  0  0  0  0  0  0  0  0  0  0
  159.0250  165.4750  156.3580 C   0  0  0  0  0  0  0  0  0  0  0  0
  160.1920  165.2350  156.4670 O   0  0  0  0  0  0  0  0  0  0  0  0
  154.3460  168.1450  144.8530 N   0  0  0  0  0  0  0  0  0  0  0  0
  158.6570  166.6630  159.6810 C   0  0  0  0  0  0  0  0  0  0  0  0
  159.6150  167.7220  159.1000 C   0  0  0  0  0  0  0  0  0  0  0  0
  158.7930  168.9230  158.5950 C   0  0  0  0  0  0  0  0  0  0  0  0
  157.8840  169.4100  159.3260 O   0  0  0  0  0  0  0  0  0  0  0  0
  159.0230  169.4230  157.4490 O   0  0  0  0  0  0  0  0  0  0  0  0
  156.1750  168.0200  146.4420 N   0  0  0  0  0  0  0  0  0  0  0  0
  156.7920  164.1010  159.3780 O   0  0  0  0  0  0  0  0  0  0  0  0
  154.9300  168.4740  146.1310 C   0  0  0  0  0  0  0  0  0  0  0  0
  158.6490  163.4890  160.3510 O   0  0  0  0  0  0  0  0  0  0  0  0
  154.2190  169.2530  147.0450 N   0  0  0  0  0  0  0  0  0  0  0  0
  154.7550  169.5560  148.2220 C   0  0  0  0  0  0  0  0  0  0  0  0
  156.0060  169.1040  148.5240 C   0  0  0  0  0  0  0  0  0  0  0  0
  154.1620  170.2160  149.0060 O   0  0  0  0  0  0  0  0  0  0  0  0
  156.7000  169.3800  149.8290 N   0  0  0  0  0  0  0  0  0  0  0  0
  157.3160  168.2510  150.3680 C   0  0  0  0  0  0  0  0  0  0  0  0
  158.2800  167.5590  149.4020 C   0  0  0  0  0  0  0  0  0  0  0  0
  156.7070  168.3230  147.6150 C   0  0  0  0  0  0  0  0  0  0  0  0
  158.0780  167.8620  148.0400 N   0  0  0  0  0  0  0  0  0  0  0  0
  156.1660  167.2320  150.6790 C   0  0  0  0  0  0  0  0  0  0  0  0
  156.7890  165.9710  151.0770 N   0  0  0  0  0  0  0  0  0  0  0  0
  157.7110  170.4450  149.6660 C   0  0  0  0  0  0  0  0  0  0  0  0
  158.4070  165.6380  154.9550 C   0  0  0  0  0  0  0  0  0  0  0  0
  157.2680  166.4240  154.7530 C   0  0  0  0  0  0  0  0  0  0  0  0
  156.7370  166.5380  153.4820 C   0  0  0  0  0  0  0  0  0  0  0  0
  157.3380  165.8650  152.4260 C   0  0  0  0  0  0  0  0  0  0  0  0
  158.4610  165.0840  152.6300 C   0  0  0  0  0  0  0  0  0  0  0  0
  158.9970  164.9690  153.9040 C   0  0  0  0  0  0  0  0  0  0  0  0
  158.0330  164.2640  159.5860 C   0  0  0  0  0  0  0  0  0  0  0  0
  1  2  1  0  0  0  0
  1  3  1  0  0  0  0
  3  4  2  0  0  0  0
  2  6  1  0  0  0  0
  6  7  1  0  0  0  0
  7  8  1  0  0  0  0
  8  9  1  0  0  0  0
  8 10  2  0  0  0  0
  5 13  1  0  0  0  0
 11 13  2  0  0  0  0
 13 15  1  0  0  0  0
 15 16  2  0  0  0  0
 16 17  1  0  0  0  0
 16 18  1  0  0  0  0
 17 19  1  0  0  0  0
 19 20  1  0  0  0  0
 20 21  1  0  0  0  0
 11 22  1  0  0  0  0
 17 22  2  0  0  0  0
 21 23  1  0  0  0  0
 22 23  1  0  0  0  0
 20 24  1  0  0  0  0
 24 25  1  0  0  0  0
 19 26  1  0  0  0  0
  3 27  1  0  0  0  0
 27 28  1  0  0  0  0
 28 29  2  0  0  0  0
 25 30  1  0  0  0  0
 29 30  1  0  0  0  0
 30 31  2  0  0  0  0
 27 32  2  0  0  0  0
 31 32  1  0  0  0  0
  2 33  1  0  0  0  0
 12 33  2  0  0  0  0
 14 33  1  0  0  0  0
M  END
$$$$
