6K41
  PyMOL3.1          3D                             0

 15 16  0  0  0  0  0  0  0  0999 V2000
  111.0340  108.1720  141.3190 N   0  0  0  0  0  0  0  0  0  0  0  0
  112.5560  106.6720  141.6500 N   0  0  0  0  0  0  0  0  0  0  0  0
  109.0370  107.1400  142.4940 C   0  0  0  0  0  0  0  0  0  0  0  0
  108.1730  106.1590  141.6990 C   0  0  0  0  0  0  0  0  0  0  0  0
  107.0590  105.3740  142.3960 C   0  0  0  0  0  0  0  0  0  0  0  0
  110.4860  107.1920  142.0030 C   0  0  0  0  0  0  0  0  0  0  0  0
  108.4290  108.5290  142.3730 C   0  0  0  0  0  0  0  0  0  0  0  0
  106.2040  104.4020  141.5980 C   0  0  0  0  0  0  0  0  0  0  0  0
  108.4080  105.9600  140.2090 C   0  0  0  0  0  0  0  0  0  0  0  0
  106.7860  105.5430  143.8920 C   0  0  0  0  0  0  0  0  0  0  0  0
  106.4470  104.2020  140.1050 C   0  0  0  0  0  0  0  0  0  0  0  0
  107.5530  104.9840  139.4110 C   0  0  0  0  0  0  0  0  0  0  0  0
  111.4460  106.2580  142.2100 C   0  0  0  0  0  0  0  0  0  0  0  0
  105.1050  103.6270  142.3070 C   0  0  0  0  0  0  0  0  0  0  0  0
  112.3170  107.8620  141.0910 C   0  0  0  0  0  0  0  0  0  0  0  0
  3  4  1  0  0  0  0
  4  5  1  0  0  0  0
  1  6  1  0  0  0  0
  3  6  1  0  0  0  0
  3  7  1  0  0  0  0
  5  8  2  0  0  0  0
  4  9  2  0  0  0  0
  5 10  1  0  0  0  0
  8 11  1  0  0  0  0
  9 12  1  0  0  0  0
 11 12  2  0  0  0  0
  2 13  1  0  0  0  0
  6 13  2  0  0  0  0
  8 14  1  0  0  0  0
  1 15  2  0  0  0  0
  2 15  1  0  0  0  0
M  END
$$$$
