6MC1
  PyMOL3.1          3D                             0

 23 25  0  0  0  0  0  0  0  0999 V2000
   70.5830  -98.1270  -47.3960 C   0  0  0  0  0  0  0  0  0  0  0  0
   71.5920  -99.4590  -47.9840 S   0  0  0  0  0  0  0  0  0  0  0  0
   70.7380 -100.2470  -49.3390 C   0  0  0  0  0  0  0  0  0  0  0  0
   69.0630  -99.9440  -49.5800 S   0  0  0  0  0  0  0  0  0  0  0  0
   68.9800 -100.9580  -50.9510 C   0  0  0  0  0  0  0  0  0  0  0  0
   70.1900 -101.5310  -51.2430 C   0  0  0  0  0  0  0  0  0  0  0  0
   70.4730 -102.4650  -52.3760 C   0  0  0  0  0  0  0  0  0  0  0  0
   71.6740 -103.3830  -52.1150 C   0  0  0  0  0  0  0  0  0  0  0  0
   72.8120 -102.7630  -51.3310 C   0  0  0  0  0  0  0  0  0  0  0  0
   74.0940 -103.2820  -51.4580 C   0  0  0  0  0  0  0  0  0  0  0  0
   75.0970 -102.7420  -50.7640 N   0  0  0  0  0  0  0  0  0  0  0  0
   74.8460 -101.6880  -49.9390 C   0  0  0  0  0  0  0  0  0  0  0  0
   76.1960 -100.9710  -49.0330 S   0  0  0  0  0  0  0  0  0  0  0  0
   75.6680  -99.4040  -48.3200 C   0  0  0  0  0  0  0  0  0  0  0  0
   75.6420  -99.4270  -46.7520 C   0  0  0  0  0  0  0  0  0  0  0  0
   75.6400 -100.4580  -46.1290 O   0  0  0  0  0  0  0  0  0  0  0  0
   75.6170  -98.1330  -45.9170 C   0  0  0  0  0  0  0  0  0  0  0  0
   74.3970  -98.2120  -45.0510 C   0  0  0  0  0  0  0  0  0  0  0  0
   75.5870  -96.8580  -46.7620 C   0  0  0  0  0  0  0  0  0  0  0  0
   76.9040  -98.1560  -45.0470 C   0  0  0  0  0  0  0  0  0  0  0  0
   73.6080 -101.1720  -49.7980 N   0  0  0  0  0  0  0  0  0  0  0  0
   72.5630 -101.6660  -50.4800 C   0  0  0  0  0  0  0  0  0  0  0  0
   71.2130 -101.1270  -50.3250 C   0  0  0  0  0  0  0  0  0  0  0  0
  1  2  1  0  0  0  0
  2  3  1  0  0  0  0
  3  4  1  0  0  0  0
  4  5  1  0  0  0  0
  5  6  2  0  0  0  0
  6  7  1  0  0  0  0
  7  8  1  0  0  0  0
  8  9  1  0  0  0  0
  9 10  2  0  0  0  0
 10 11  1  0  0  0  0
 11 12  2  0  0  0  0
 12 13  1  0  0  0  0
 13 14  1  0  0  0  0
 14 15  1  0  0  0  0
 15 16  2  0  0  0  0
 15 17  1  0  0  0  0
 17 18  1  0  0  0  0
 17 19  1  0  0  0  0
 17 20  1  0  0  0  0
 12 21  1  0  0  0  0
  9 22  1  0  0  0  0
 21 22  2  0  0  0  0
  3 23  2  0  0  0  0
  6 23  1  0  0  0  0
 22 23  1  0  0  0  0
M  END
$$$$
