6MC1
  PyMOL3.1          3D                             0

 23 25  0  0  0  0  0  0  0  0999 V2000
   70.0380  -91.7260   -0.2600 C   0  0  0  0  0  0  0  0  0  0  0  0
   71.2640  -90.5230   -0.6780 S   0  0  0  0  0  0  0  0  0  0  0  0
   70.3320  -89.1020   -1.2320 C   0  0  0  0  0  0  0  0  0  0  0  0
   68.6220  -89.2300   -1.3360 S   0  0  0  0  0  0  0  0  0  0  0  0
   68.4350  -87.6230   -1.8890 C   0  0  0  0  0  0  0  0  0  0  0  0
   69.6370  -86.9720   -1.9970 C   0  0  0  0  0  0  0  0  0  0  0  0
   69.8260  -85.5530   -2.4400 C   0  0  0  0  0  0  0  0  0  0  0  0
   71.2580  -85.2080   -2.8770 C   0  0  0  0  0  0  0  0  0  0  0  0
   72.3690  -86.0450   -2.2740 C   0  0  0  0  0  0  0  0  0  0  0  0
   73.6700  -85.5760   -2.3200 C   0  0  0  0  0  0  0  0  0  0  0  0
   74.6540  -86.3090   -1.7930 N   0  0  0  0  0  0  0  0  0  0  0  0
   74.3750  -87.5130   -1.2160 C   0  0  0  0  0  0  0  0  0  0  0  0
   75.7160  -88.4590   -0.5260 S   0  0  0  0  0  0  0  0  0  0  0  0
   75.1330  -90.0300    0.1260 C   0  0  0  0  0  0  0  0  0  0  0  0
   75.4040  -91.2150   -0.8630 C   0  0  0  0  0  0  0  0  0  0  0  0
   75.6040  -90.9970   -2.0250 O   0  0  0  0  0  0  0  0  0  0  0  0
   75.4220  -92.6920   -0.4080 C   0  0  0  0  0  0  0  0  0  0  0  0
   74.3820  -93.4400   -1.1800 C   0  0  0  0  0  0  0  0  0  0  0  0
   75.1400  -92.8400    1.0830 C   0  0  0  0  0  0  0  0  0  0  0  0
   76.8200  -93.2800   -0.7440 C   0  0  0  0  0  0  0  0  0  0  0  0
   73.1160  -87.9900   -1.1640 N   0  0  0  0  0  0  0  0  0  0  0  0
   72.0920  -87.2920   -1.6760 C   0  0  0  0  0  0  0  0  0  0  0  0
   70.7350  -87.8140   -1.6190 C   0  0  0  0  0  0  0  0  0  0  0  0
  1  2  1  0  0  0  0
  2  3  1  0  0  0  0
  3  4  1  0  0  0  0
  4  5  1  0  0  0  0
  5  6  2  0  0  0  0
  6  7  1  0  0  0  0
  7  8  1  0  0  0  0
  8  9  1  0  0  0  0
  9 10  2  0  0  0  0
 10 11  1  0  0  0  0
 11 12  2  0  0  0  0
 12 13  1  0  0  0  0
 13 14  1  0  0  0  0
 14 15  1  0  0  0  0
 15 16  2  0  0  0  0
 15 17  1  0  0  0  0
 17 18  1  0  0  0  0
 17 19  1  0  0  0  0
 17 20  1  0  0  0  0
 12 21  1  0  0  0  0
  9 22  1  0  0  0  0
 21 22  2  0  0  0  0
  3 23  2  0  0  0  0
  6 23  1  0  0  0  0
 22 23  1  0  0  0  0
M  END
$$$$
