6MC1
  PyMOL3.1          3D                             0

 23 25  0  0  0  0  0  0  0  0999 V2000
   98.0490  -68.7750   -3.8950 C   0  0  0  0  0  0  0  0  0  0  0  0
   97.0090  -68.1720   -5.1930 S   0  0  0  0  0  0  0  0  0  0  0  0
   96.1870  -69.6460   -5.7530 C   0  0  0  0  0  0  0  0  0  0  0  0
   96.5220  -71.1100   -4.9160 S   0  0  0  0  0  0  0  0  0  0  0  0
   95.4710  -72.0060   -5.9240 C   0  0  0  0  0  0  0  0  0  0  0  0
   94.8680  -71.2300   -6.8820 C   0  0  0  0  0  0  0  0  0  0  0  0
   93.8930  -71.6970   -7.9150 C   0  0  0  0  0  0  0  0  0  0  0  0
   93.7680  -70.7640   -9.1260 C   0  0  0  0  0  0  0  0  0  0  0  0
   94.0020  -69.2900   -8.8680 C   0  0  0  0  0  0  0  0  0  0  0  0
   93.4980  -68.3450   -9.7540 C   0  0  0  0  0  0  0  0  0  0  0  0
   93.7160  -67.0470   -9.5180 N   0  0  0  0  0  0  0  0  0  0  0  0
   94.4310  -66.6700   -8.4120 C   0  0  0  0  0  0  0  0  0  0  0  0
   94.7310  -64.9420   -8.0990 S   0  0  0  0  0  0  0  0  0  0  0  0
   95.8130  -64.7630   -6.6700 C   0  0  0  0  0  0  0  0  0  0  0  0
   97.3130  -64.5300   -7.0550 C   0  0  0  0  0  0  0  0  0  0  0  0
   97.7730  -64.9740   -8.0700 O   0  0  0  0  0  0  0  0  0  0  0  0
   98.2660  -63.7290   -6.1490 C   0  0  0  0  0  0  0  0  0  0  0  0
   99.5530  -64.4790   -6.0510 C   0  0  0  0  0  0  0  0  0  0  0  0
   97.6740  -63.5080   -4.7630 C   0  0  0  0  0  0  0  0  0  0  0  0
   98.5240  -62.3690   -6.8440 C   0  0  0  0  0  0  0  0  0  0  0  0
   94.9280  -67.5810   -7.5490 N   0  0  0  0  0  0  0  0  0  0  0  0
   94.7370  -68.8910   -7.7360 C   0  0  0  0  0  0  0  0  0  0  0  0
   95.2760  -69.8630   -6.7960 C   0  0  0  0  0  0  0  0  0  0  0  0
  1  2  1  0  0  0  0
  2  3  1  0  0  0  0
  3  4  1  0  0  0  0
  4  5  1  0  0  0  0
  5  6  2  0  0  0  0
  6  7  1  0  0  0  0
  7  8  1  0  0  0  0
  8  9  1  0  0  0  0
  9 10  2  0  0  0  0
 10 11  1  0  0  0  0
 11 12  2  0  0  0  0
 12 13  1  0  0  0  0
 13 14  1  0  0  0  0
 14 15  1  0  0  0  0
 15 16  2  0  0  0  0
 15 17  1  0  0  0  0
 17 18  1  0  0  0  0
 17 19  1  0  0  0  0
 17 20  1  0  0  0  0
 12 21  1  0  0  0  0
  9 22  1  0  0  0  0
 21 22  2  0  0  0  0
  3 23  2  0  0  0  0
  6 23  1  0  0  0  0
 22 23  1  0  0  0  0
M  END
$$$$
