6MC1
  PyMOL3.1          3D                             0

 23 25  0  0  0  0  0  0  0  0999 V2000
   65.8530  -86.1880   -6.7250 C   0  0  0  0  0  0  0  0  0  0  0  0
   66.6200  -87.3210   -7.8470 S   0  0  0  0  0  0  0  0  0  0  0  0
   66.9040  -88.8370   -6.9460 C   0  0  0  0  0  0  0  0  0  0  0  0
   66.1650  -89.0770   -5.4020 S   0  0  0  0  0  0  0  0  0  0  0  0
   66.8690  -90.6230   -5.2240 C   0  0  0  0  0  0  0  0  0  0  0  0
   67.6480  -90.9740   -6.2990 C   0  0  0  0  0  0  0  0  0  0  0  0
   68.3950  -92.2590   -6.4680 C   0  0  0  0  0  0  0  0  0  0  0  0
   69.5820  -92.1640   -7.4400 C   0  0  0  0  0  0  0  0  0  0  0  0
   69.4010  -91.2190   -8.6100 C   0  0  0  0  0  0  0  0  0  0  0  0
   70.1630  -91.4010   -9.7570 C   0  0  0  0  0  0  0  0  0  0  0  0
   70.0160  -90.5670  -10.7810 N   0  0  0  0  0  0  0  0  0  0  0  0
   69.1160  -89.5470  -10.6930 C   0  0  0  0  0  0  0  0  0  0  0  0
   68.9370  -88.4460  -12.0810 S   0  0  0  0  0  0  0  0  0  0  0  0
   67.6830  -87.2100  -11.7100 C   0  0  0  0  0  0  0  0  0  0  0  0
   68.2880  -85.8270  -11.2850 C   0  0  0  0  0  0  0  0  0  0  0  0
   69.3280  -85.7510  -10.6900 O   0  0  0  0  0  0  0  0  0  0  0  0
   67.5830  -84.5010  -11.6180 C   0  0  0  0  0  0  0  0  0  0  0  0
   67.2810  -83.7910  -10.3430 C   0  0  0  0  0  0  0  0  0  0  0  0
   66.2910  -84.7040  -12.4010 C   0  0  0  0  0  0  0  0  0  0  0  0
   68.5940  -83.6830  -12.4570 C   0  0  0  0  0  0  0  0  0  0  0  0
   68.3680  -89.3550   -9.5840 N   0  0  0  0  0  0  0  0  0  0  0  0
   68.4710  -90.1640   -8.5180 C   0  0  0  0  0  0  0  0  0  0  0  0
   67.6750  -89.9580   -7.3040 C   0  0  0  0  0  0  0  0  0  0  0  0
  1  2  1  0  0  0  0
  2  3  1  0  0  0  0
  3  4  1  0  0  0  0
  4  5  1  0  0  0  0
  5  6  2  0  0  0  0
  6  7  1  0  0  0  0
  7  8  1  0  0  0  0
  8  9  1  0  0  0  0
  9 10  2  0  0  0  0
 10 11  1  0  0  0  0
 11 12  2  0  0  0  0
 12 13  1  0  0  0  0
 13 14  1  0  0  0  0
 14 15  1  0  0  0  0
 15 16  2  0  0  0  0
 15 17  1  0  0  0  0
 17 18  1  0  0  0  0
 17 19  1  0  0  0  0
 17 20  1  0  0  0  0
 12 21  1  0  0  0  0
  9 22  1  0  0  0  0
 21 22  2  0  0  0  0
  3 23  2  0  0  0  0
  6 23  1  0  0  0  0
 22 23  1  0  0  0  0
M  END
$$$$
