6MC1
  PyMOL3.1          3D                             0

 23 25  0  0  0  0  0  0  0  0999 V2000
   97.2940  -76.6630   -8.7070 C   0  0  0  0  0  0  0  0  0  0  0  0
   98.6670  -75.9760   -9.5900 S   0  0  0  0  0  0  0  0  0  0  0  0
   99.4530  -74.8860   -8.4080 C   0  0  0  0  0  0  0  0  0  0  0  0
   98.8640  -74.9240   -6.7910 S   0  0  0  0  0  0  0  0  0  0  0  0
   99.9850  -73.7370   -6.2750 C   0  0  0  0  0  0  0  0  0  0  0  0
  100.8080  -73.3020   -7.2860 C   0  0  0  0  0  0  0  0  0  0  0  0
  101.8980  -72.2840   -7.1550 C   0  0  0  0  0  0  0  0  0  0  0  0
  102.5360  -71.7880   -8.4620 C   0  0  0  0  0  0  0  0  0  0  0  0
  102.2590  -72.5890   -9.7130 C   0  0  0  0  0  0  0  0  0  0  0  0
  102.9700  -72.2970  -10.8710 C   0  0  0  0  0  0  0  0  0  0  0  0
  102.7230  -73.0020  -11.9830 N   0  0  0  0  0  0  0  0  0  0  0  0
  101.7780  -73.9990  -11.9710 C   0  0  0  0  0  0  0  0  0  0  0  0
  101.4380  -74.9530  -13.4400 S   0  0  0  0  0  0  0  0  0  0  0  0
  100.3870  -76.3400  -13.0010 C   0  0  0  0  0  0  0  0  0  0  0  0
   98.9530  -76.2340  -13.6170 C   0  0  0  0  0  0  0  0  0  0  0  0
   98.4140  -75.1780  -13.7950 O   0  0  0  0  0  0  0  0  0  0  0  0
   98.1850  -77.5010  -14.0200 C   0  0  0  0  0  0  0  0  0  0  0  0
   96.8290  -77.4550  -13.3970 C   0  0  0  0  0  0  0  0  0  0  0  0
   98.9210  -78.7460  -13.5530 C   0  0  0  0  0  0  0  0  0  0  0  0
   98.0780  -77.4700  -15.5680 C   0  0  0  0  0  0  0  0  0  0  0  0
  101.0820  -74.2830  -10.8560 N   0  0  0  0  0  0  0  0  0  0  0  0
  101.2850  -73.6130   -9.7110 C   0  0  0  0  0  0  0  0  0  0  0  0
  100.5090  -73.9530   -8.5230 C   0  0  0  0  0  0  0  0  0  0  0  0
  1  2  1  0  0  0  0
  2  3  1  0  0  0  0
  3  4  1  0  0  0  0
  4  5  1  0  0  0  0
  5  6  2  0  0  0  0
  6  7  1  0  0  0  0
  7  8  1  0  0  0  0
  8  9  1  0  0  0  0
  9 10  2  0  0  0  0
 10 11  1  0  0  0  0
 11 12  2  0  0  0  0
 12 13  1  0  0  0  0
 13 14  1  0  0  0  0
 14 15  1  0  0  0  0
 15 16  2  0  0  0  0
 15 17  1  0  0  0  0
 17 18  1  0  0  0  0
 17 19  1  0  0  0  0
 17 20  1  0  0  0  0
 12 21  1  0  0  0  0
  9 22  1  0  0  0  0
 21 22  2  0  0  0  0
  3 23  2  0  0  0  0
  6 23  1  0  0  0  0
 22 23  1  0  0  0  0
M  END
$$$$
