8DGZ
  PyMOL3.1          3D                             0

 20 21  0  0  0  0  0  0  0  0999 V2000
   44.2620  -12.9680   11.7860 C   0  0  0  0  0  0  0  0  0  0  0  0
   44.5520  -13.9060   12.7540 C   0  0  0  0  0  0  0  0  0  0  0  0
   43.9340  -15.1380   12.6980 C   0  0  0  0  0  0  0  0  0  0  0  0
   43.0590  -15.4640   11.6710 C   0  0  0  0  0  0  0  0  0  0  0  0
   42.7670  -14.5240   10.6930 C   0  0  0  0  0  0  0  0  0  0  0  0
   43.3770  -13.2800   10.7410 C   0  0  0  0  0  0  0  0  0  0  0  0
   41.6260  -11.0780   10.3120 C   0  0  0  0  0  0  0  0  0  0  0  0
   40.3310  -10.8180    9.5340 C   0  0  0  0  0  0  0  0  0  0  0  0
   40.5220  -10.2550    8.1400 C   0  0  0  0  0  0  0  0  0  0  0  0
   40.8830  -11.1740    7.1780 C   0  0  0  0  0  0  0  0  0  0  0  0
   41.1100  -10.7600    5.8940 C   0  0  0  0  0  0  0  0  0  0  0  0
   40.9690   -9.4240    5.5860 C   0  0  0  0  0  0  0  0  0  0  0  0
   40.6090   -8.4850    6.5530 C   0  0  0  0  0  0  0  0  0  0  0  0
   40.3800   -8.9040    7.8580 C   0  0  0  0  0  0  0  0  0  0  0  0
   44.9780  -11.6310   11.9420 C   0  0  0  0  0  0  0  0  0  0  0  0
   44.7330  -10.9540   12.9830 O   0  5  0  0  0  0  0  0  0  0  0  0
   45.8160  -11.2500   11.0610 O   0  0  0  0  0  0  0  0  0  0  0  0
   39.2520  -11.0560    9.9860 O   0  0  0  0  0  0  0  0  0  0  0  0
   42.9220  -12.0810    9.4660 S   0  0  0  0  0  0  0  0  0  0  0  0
   41.2750   -9.0040    3.8840 Cl  0  0  0  0  0  0  0  0  0  0  0  0
  1  2  1  0  0  0  0
  2  3  2  0  0  0  0
  3  4  1  0  0  0  0
  4  5  2  0  0  0  0
  1  6  2  0  0  0  0
  5  6  1  0  0  0  0
  7  8  1  0  0  0  0
  8  9  1  0  0  0  0
  9 10  2  0  0  0  0
 10 11  1  0  0  0  0
 11 12  2  0  0  0  0
 12 13  1  0  0  0  0
  9 14  1  0  0  0  0
 13 14  2  0  0  0  0
  1 15  1  0  0  0  0
 15 16  1  0  0  0  0
 15 17  2  0  0  0  0
  8 18  2  0  0  0  0
  6 19  1  0  0  0  0
  7 19  1  0  0  0  0
 12 20  1  0  0  0  0
M  END
$$$$
