7EZP
  PyMOL3.1          3D                             0

 96100  0  0  0  0  0  0  0  0999 V2000
  -17.5640    8.1640   -6.0330 C   0  0  0  0  0  0  0  0  0  0  0  0
  -14.0850    7.6950   -3.9740 N   0  0  0  0  0  0  0  0  0  0  0  0
  -11.0040    7.2320   -4.9790 O   0  0  0  0  0  0  0  0  0  0  0  0
  -17.6940    7.6190   -4.7740 C   0  0  0  0  0  0  0  0  0  0  0  0
  -16.7490    6.8660   -2.6590 N   0  0  0  0  0  0  0  0  0  0  0  0
  -11.1510    9.2270   -4.1430 O   0  0  0  0  0  0  0  0  0  0  0  0
  -16.5750    7.4250   -3.9920 C   0  0  0  0  0  0  0  0  0  0  0  0
  -15.5660   11.3220   -8.5180 O   0  0  0  0  0  0  0  0  0  0  0  0
  -15.3090    7.7680   -4.4960 C   0  0  0  0  0  0  0  0  0  0  0  0
  -14.2890   10.0320   -9.7000 O   0  0  0  0  0  0  0  0  0  0  0  0
  -15.1910    8.3000   -5.7500 C   0  0  0  0  0  0  0  0  0  0  0  0
  -15.6600    6.6650   -1.8190 O   0  0  0  0  0  0  0  0  0  0  0  0
  -16.3240    8.4850   -6.5220 C   0  0  0  0  0  0  0  0  0  0  0  0
  -18.0070    6.5250   -2.1870 O   0  0  0  0  0  0  0  0  0  0  0  0
  -13.1890    8.1460   -4.8160 C   0  0  0  0  0  0  0  0  0  0  0  0
  -13.8260    8.5450   -5.9620 C   0  0  0  0  0  0  0  0  0  0  0  0
  -11.6930    8.2130   -4.6190 C   0  0  0  0  0  0  0  0  0  0  0  0
  -13.1230    9.1250   -7.1760 C   0  0  0  0  0  0  0  0  0  0  0  0
  -13.5190   10.5640   -7.4600 C   0  0  0  0  0  0  0  0  0  0  0  0
  -14.5110   10.6460   -8.6250 C   0  0  0  0  0  0  0  0  0  0  0  0
  -18.7540    8.3860   -6.9400 C   0  0  0  0  0  0  0  0  0  0  0  0
  -19.7260    9.4430   -6.4770 C   0  0  0  0  0  0  0  0  0  0  0  0
  -19.2330   10.8410   -6.7840 C   0  0  0  0  0  0  0  0  0  0  0  0
  -21.0400    9.1650   -7.1980 C   0  0  0  0  0  0  0  0  0  0  0  0
  -40.6110    8.3050   48.8510 C   0  0  0  0  0  0  0  0  0  0  0  0
  -39.2470    4.4630   48.8520 N   0  0  0  0  0  0  0  0  0  0  0  0
  -40.7830    1.6500   50.1840 O   0  0  0  0  0  0  0  0  0  0  0  0
  -39.6050    8.0120   47.9520 C   0  0  0  0  0  0  0  0  0  0  0  0
  -38.0490    6.4400   46.9130 N   0  0  0  0  0  0  0  0  0  0  0  0
  -38.6630    2.0640   50.4000 O   0  0  0  0  0  0  0  0  0  0  0  0
  -39.0850    6.7430   47.8800 C   0  0  0  0  0  0  0  0  0  0  0  0
  -44.9620    5.4090   51.6380 O   0  0  0  0  0  0  0  0  0  0  0  0
  -39.5660    5.7460   48.7220 C   0  0  0  0  0  0  0  0  0  0  0  0
  -44.4380    5.4820   49.5150 O   0  0  0  0  0  0  0  0  0  0  0  0
  -40.5570    6.0390   49.6140 C   0  0  0  0  0  0  0  0  0  0  0  0
  -37.9240    5.1390   46.4210 O   0  0  0  0  0  0  0  0  0  0  0  0
  -41.0860    7.3200   49.6810 C   0  0  0  0  0  0  0  0  0  0  0  0
  -37.1940    7.4340   46.4410 O   0  0  0  0  0  0  0  0  0  0  0  0
  -39.9760    3.8950   49.7700 C   0  0  0  0  0  0  0  0  0  0  0  0
  -40.8250    4.8510   50.2960 C   0  0  0  0  0  0  0  0  0  0  0  0
  -39.8180    2.4480   50.1420 C   0  0  0  0  0  0  0  0  0  0  0  0
  -41.8540    4.7130   51.3970 C   0  0  0  0  0  0  0  0  0  0  0  0
  -43.1240    4.0400   50.9170 C   0  0  0  0  0  0  0  0  0  0  0  0
  -44.2440    5.0340   50.6740 C   0  0  0  0  0  0  0  0  0  0  0  0
  -41.2180    9.6990   48.9300 C   0  0  0  0  0  0  0  0  0  0  0  0
  -40.1830   10.8220   48.9760 C   0  0  0  0  0  0  0  0  0  0  0  0
  -40.8870   12.1220   48.6410 C   0  0  0  0  0  0  0  0  0  0  0  0
  -39.5070   10.9360   50.3510 C   0  0  0  0  0  0  0  0  0  0  0  0
   -0.8620   -4.3750    0.7830 C   0  0  0  0  0  0  0  0  0  0  0  0
   -4.7560   -3.8030   -0.2360 N   0  0  0  0  0  0  0  0  0  0  0  0
   -6.4790   -4.7800   -3.0100 O   0  0  0  0  0  0  0  0  0  0  0  0
   -1.7340   -4.1090    1.8400 C   0  0  0  0  0  0  0  0  0  0  0  0
   -3.9680   -3.6350    2.7200 N   0  0  0  0  0  0  0  0  0  0  0  0
   -6.4080   -2.6690   -2.5210 O   0  0  0  0  0  0  0  0  0  0  0  0
   -3.0810   -3.8960    1.6000 C   0  0  0  0  0  0  0  0  0  0  0  0
   -1.9530   -7.5090   -3.1930 O   0  0  0  0  0  0  0  0  0  0  0  0
   -3.5460   -3.9550    0.2830 C   0  0  0  0  0  0  0  0  0  0  0  0
   -1.9640   -7.0730   -5.3250 O   0  0  0  0  0  0  0  0  0  0  0  0
   -2.6770   -4.2210   -0.7480 C   0  0  0  0  0  0  0  0  0  0  0  0
   -5.3580   -3.8190    2.6440 O   0  0  0  0  0  0  0  0  0  0  0  0
   -1.3320   -4.4320   -0.5060 C   0  0  0  0  0  0  0  0  0  0  0  0
   -3.4420   -3.2100    3.9380 O   0  0  0  0  0  0  0  0  0  0  0  0
   -4.7270   -3.9590   -1.5370 C   0  0  0  0  0  0  0  0  0  0  0  0
   -3.4230   -4.2160   -1.9220 C   0  0  0  0  0  0  0  0  0  0  0  0
   -5.9460   -3.8210   -2.4120 C   0  0  0  0  0  0  0  0  0  0  0  0
   -2.8580   -4.4720   -3.3100 C   0  0  0  0  0  0  0  0  0  0  0  0
   -3.4010   -5.7470   -3.9570 C   0  0  0  0  0  0  0  0  0  0  0  0
   -2.3690   -6.8370   -4.1680 C   0  0  0  0  0  0  0  0  0  0  0  0
    0.6250   -4.5940    0.9960 C   0  0  0  0  0  0  0  0  0  0  0  0
    0.9440   -5.6060    2.0810 C   0  0  0  0  0  0  0  0  0  0  0  0
    0.9130   -7.0400    1.5420 C   0  0  0  0  0  0  0  0  0  0  0  0
    2.3240   -5.2610    2.6330 C   0  0  0  0  0  0  0  0  0  0  0  0
  -27.5670  -10.2400   53.5060 C   0  0  0  0  0  0  0  0  0  0  0  0
  -27.6410   -6.1910   53.1160 N   0  0  0  0  0  0  0  0  0  0  0  0
  -29.1090   -3.8070   54.4020 O   0  0  0  0  0  0  0  0  0  0  0  0
  -27.3250   -9.7500   52.2400 C   0  0  0  0  0  0  0  0  0  0  0  0
  -27.0510   -7.9150   50.6760 N   0  0  0  0  0  0  0  0  0  0  0  0
  -27.2140   -3.7570   55.4400 O   0  0  0  0  0  0  0  0  0  0  0  0
  -27.3270   -8.3910   52.0120 C   0  0  0  0  0  0  0  0  0  0  0  0
  -26.2750   -6.5970   59.6510 O   0  0  0  0  0  0  0  0  0  0  0  0
  -27.5780   -7.5170   53.0640 C   0  0  0  0  0  0  0  0  0  0  0  0
  -28.2970   -7.3420   59.4460 O   0  0  0  0  0  0  0  0  0  0  0  0
  -27.8310   -8.0090   54.3160 C   0  0  0  0  0  0  0  0  0  0  0  0
  -26.6570   -6.5980   50.4360 O   0  0  0  0  0  0  0  0  0  0  0  0
  -27.8290   -9.3720   54.5390 C   0  0  0  0  0  0  0  0  0  0  0  0
  -27.1360   -8.7940   49.5970 O   0  0  0  0  0  0  0  0  0  0  0  0
  -27.8990   -5.7940   54.3340 C   0  0  0  0  0  0  0  0  0  0  0  0
  -28.0470   -6.9010   55.1360 C   0  0  0  0  0  0  0  0  0  0  0  0
  -28.0640   -4.3650   54.7570 C   0  0  0  0  0  0  0  0  0  0  0  0
  -28.3540   -6.9000   56.6150 C   0  0  0  0  0  0  0  0  0  0  0  0
  -27.0450   -6.9120   57.3910 C   0  0  0  0  0  0  0  0  0  0  0  0
  -27.2230   -6.9520   58.9110 C   0  0  0  0  0  0  0  0  0  0  0  0
  -27.5980  -11.7370   53.7750 C   0  0  0  0  0  0  0  0  0  0  0  0
  -26.2960  -12.4920   53.5530 C   0  0  0  0  0  0  0  0  0  0  0  0
  -25.1030  -11.9080   54.3180 C   0  0  0  0  0  0  0  0  0  0  0  0
  -26.5540  -13.9330   54.0000 C   0  0  0  0  0  0  0  0  0  0  0  0
  1  4  1  0  0  0  0
  4  7  2  0  0  0  0
  5  7  1  0  0  0  0
  2  9  1  0  0  0  0
  7  9  1  0  0  0  0
  9 11  2  0  0  0  0
  5 12  1  0  0  0  0
  1 13  2  0  0  0  0
 11 13  1  0  0  0  0
  5 14  2  0  0  0  0
  2 15  1  0  0  0  0
 11 16  1  0  0  0  0
 15 16  2  0  0  0  0
  3 17  2  0  0  0  0
  6 17  1  0  0  0  0
 15 17  1  0  0  0  0
 16 18  1  0  0  0  0
 18 19  1  0  0  0  0
  8 20  1  0  0  0  0
 10 20  2  0  0  0  0
 19 20  1  0  0  0  0
  1 21  1  0  0  0  0
 21 22  1  0  0  0  0
 22 23  1  0  0  0  0
 22 24  1  0  0  0  0
 25 28  1  0  0  0  0
 28 31  2  0  0  0  0
 29 31  1  0  0  0  0
 26 33  1  0  0  0  0
 31 33  1  0  0  0  0
 33 35  2  0  0  0  0
 29 36  1  0  0  0  0
 25 37  2  0  0  0  0
 35 37  1  0  0  0  0
 29 38  2  0  0  0  0
 26 39  1  0  0  0  0
 35 40  1  0  0  0  0
 39 40  2  0  0  0  0
 27 41  2  0  0  0  0
 30 41  1  0  0  0  0
 39 41  1  0  0  0  0
 40 42  1  0  0  0  0
 42 43  1  0  0  0  0
 32 44  1  0  0  0  0
 34 44  2  0  0  0  0
 43 44  1  0  0  0  0
 25 45  1  0  0  0  0
 45 46  1  0  0  0  0
 46 47  1  0  0  0  0
 46 48  1  0  0  0  0
 49 52  1  0  0  0  0
 52 55  2  0  0  0  0
 53 55  1  0  0  0  0
 50 57  1  0  0  0  0
 55 57  1  0  0  0  0
 57 59  2  0  0  0  0
 53 60  1  0  0  0  0
 49 61  2  0  0  0  0
 59 61  1  0  0  0  0
 53 62  2  0  0  0  0
 50 63  1  0  0  0  0
 59 64  1  0  0  0  0
 63 64  2  0  0  0  0
 51 65  2  0  0  0  0
 54 65  1  0  0  0  0
 63 65  1  0  0  0  0
 64 66  1  0  0  0  0
 66 67  1  0  0  0  0
 56 68  1  0  0  0  0
 58 68  2  0  0  0  0
 67 68  1  0  0  0  0
 49 69  1  0  0  0  0
 69 70  1  0  0  0  0
 70 71  1  0  0  0  0
 70 72  1  0  0  0  0
 73 76  1  0  0  0  0
 76 79  2  0  0  0  0
 77 79  1  0  0  0  0
 74 81  1  0  0  0  0
 79 81  1  0  0  0  0
 81 83  2  0  0  0  0
 77 84  1  0  0  0  0
 73 85  2  0  0  0  0
 83 85  1  0  0  0  0
 77 86  2  0  0  0  0
 74 87  1  0  0  0  0
 83 88  1  0  0  0  0
 87 88  2  0  0  0  0
 75 89  2  0  0  0  0
 78 89  1  0  0  0  0
 87 89  1  0  0  0  0
 88 90  1  0  0  0  0
 90 91  1  0  0  0  0
 80 92  1  0  0  0  0
 82 92  2  0  0  0  0
 91 92  1  0  0  0  0
 73 93  1  0  0  0  0
 93 94  1  0  0  0  0
 94 95  1  0  0  0  0
 94 96  1  0  0  0  0
M  END
$$$$
