7OD0
  PyMOL3.1          3D                             0

 18 19  0  0  0  0  0  0  0  0999 V2000
   21.2420    1.4050   49.5120 C   0  0  0  0  0  0  0  0  0  0  0  0
   21.5700    2.7410   50.0490 N   0  0  0  0  0  0  0  0  0  0  0  0
   23.2590    1.5030   53.5000 S   0  0  0  0  0  0  0  0  0  0  0  0
   21.1030    0.4440   50.6580 C   0  0  0  0  0  0  0  0  0  0  0  0
   22.5750    0.1050   53.9320 N   0  0  0  0  0  0  0  0  0  0  0  0
   20.2120   -0.6280   50.6460 C   0  0  0  0  0  0  0  0  0  0  0  0
   22.7690    1.6380   51.9650 N   0  0  0  0  0  0  0  0  0  0  0  0
   20.1040   -1.4890   51.7340 C   0  0  0  0  0  0  0  0  0  0  0  0
   20.8480   -1.3200   52.8760 C   0  0  0  0  0  0  0  0  0  0  0  0
   21.7610   -0.2410   52.9110 C   0  0  0  0  0  0  0  0  0  0  0  0
   21.8810    0.6380   51.7850 C   0  0  0  0  0  0  0  0  0  0  0  0
   21.8660    3.2490   49.2830 H   0  0  0  0  0  0  0  0  0  0  0  0
   20.7230    3.1110   50.3250 H   0  0  0  0  0  0  0  0  0  0  0  0
   21.9520    1.0920   48.9120 H   0  0  0  0  0  0  0  0  0  0  0  0
   20.3990    1.4340   49.0110 H   0  0  0  0  0  0  0  0  0  0  0  0
   19.6730   -0.7740   49.8740 H   0  0  0  0  0  0  0  0  0  0  0  0
   19.4960   -2.2050   51.6920 H   0  0  0  0  0  0  0  0  0  0  0  0
   20.7760   -1.9060   53.5930 H   0  0  0  0  0  0  0  0  0  0  0  0
  1  2  1  0  0  0  0
  1  4  1  0  0  0  0
  3  5  1  0  0  0  0
  4  6  2  0  0  0  0
  3  7  1  0  0  0  0
  6  8  1  0  0  0  0
  8  9  2  0  0  0  0
  5 10  2  0  0  0  0
  9 10  1  0  0  0  0
  4 11  1  0  0  0  0
  7 11  2  0  0  0  0
 10 11  1  0  0  0  0
  2 12  1  0  0  0  0
  2 13  1  0  0  0  0
  1 14  1  0  0  0  0
  1 15  1  0  0  0  0
  6 16  1  0  0  0  0
  8 17  1  0  0  0  0
  9 18  1  0  0  0  0
M  END
$$$$
