7OD0
  PyMOL3.1          3D                             0

 18 19  0  0  0  0  0  0  0  0999 V2000
   46.8810  -38.5800    0.5960 C   0  0  0  0  0  0  0  0  0  0  0  0
   47.9270  -39.5710    0.3440 N   0  0  0  0  0  0  0  0  0  0  0  0
   47.5010  -37.0130   -3.6530 S   0  0  0  0  0  0  0  0  0  0  0  0
   45.9260  -38.3910   -0.5570 C   0  0  0  0  0  0  0  0  0  0  0  0
   45.9030  -36.9700   -3.8940 N   0  0  0  0  0  0  0  0  0  0  0  0
   44.5950  -38.8160   -0.4570 C   0  0  0  0  0  0  0  0  0  0  0  0
   47.5530  -37.3120   -2.0630 N   0  0  0  0  0  0  0  0  0  0  0  0
   43.6770  -38.6160   -1.4810 C   0  0  0  0  0  0  0  0  0  0  0  0
   44.0300  -38.0110   -2.6640 C   0  0  0  0  0  0  0  0  0  0  0  0
   45.3700  -37.5810   -2.8150 C   0  0  0  0  0  0  0  0  0  0  0  0
   46.3210  -37.7660   -1.7490 C   0  0  0  0  0  0  0  0  0  0  0  0
   48.5710  -39.1130   -0.2100 H   0  0  0  0  0  0  0  0  0  0  0  0
   47.5100  -40.2430   -0.2050 H   0  0  0  0  0  0  0  0  0  0  0  0
   47.3100  -37.7200    0.7890 H   0  0  0  0  0  0  0  0  0  0  0  0
   46.3720  -38.8520    1.3880 H   0  0  0  0  0  0  0  0  0  0  0  0
   44.3050  -39.2230    0.3530 H   0  0  0  0  0  0  0  0  0  0  0  0
   42.7920  -38.9150   -1.3690 H   0  0  0  0  0  0  0  0  0  0  0  0
   43.4130  -37.9000   -3.3540 H   0  0  0  0  0  0  0  0  0  0  0  0
  1  2  1  0  0  0  0
  1  4  1  0  0  0  0
  3  5  1  0  0  0  0
  4  6  2  0  0  0  0
  3  7  1  0  0  0  0
  6  8  1  0  0  0  0
  8  9  2  0  0  0  0
  5 10  2  0  0  0  0
  9 10  1  0  0  0  0
  4 11  1  0  0  0  0
  7 11  2  0  0  0  0
 10 11  1  0  0  0  0
  2 12  1  0  0  0  0
  2 13  1  0  0  0  0
  1 14  1  0  0  0  0
  1 15  1  0  0  0  0
  6 16  1  0  0  0  0
  8 17  1  0  0  0  0
  9 18  1  0  0  0  0
M  END
$$$$
