7OD0
  PyMOL3.1          3D                             0

 18 19  0  0  0  0  0  0  0  0999 V2000
    5.5130  -42.9830   49.7360 C   0  0  0  0  0  0  0  0  0  0  0  0
    4.0890  -43.1680   50.0760 N   0  0  0  0  0  0  0  0  0  0  0  0
    4.3740  -41.1130   53.7070 S   0  0  0  0  0  0  0  0  0  0  0  0
    6.3580  -42.5340   50.9010 C   0  0  0  0  0  0  0  0  0  0  0  0
    5.9210  -40.7610   54.0230 N   0  0  0  0  0  0  0  0  0  0  0  0
    7.7330  -42.7750   50.9220 C   0  0  0  0  0  0  0  0  0  0  0  0
    4.5030  -41.5360   52.1540 N   0  0  0  0  0  0  0  0  0  0  0  0
    8.5360  -42.3410   51.9710 C   0  0  0  0  0  0  0  0  0  0  0  0
    8.0230  -41.6590   53.0460 C   0  0  0  0  0  0  0  0  0  0  0  0
    6.6280  -41.4110   53.0670 C   0  0  0  0  0  0  0  0  0  0  0  0
    5.8030  -41.8530   51.9820 C   0  0  0  0  0  0  0  0  0  0  0  0
    3.7540  -42.2870   50.2830 H   0  0  0  0  0  0  0  0  0  0  0  0
    4.0790  -43.6880   50.8890 H   0  0  0  0  0  0  0  0  0  0  0  0
    5.5760  -42.3090   49.0270 H   0  0  0  0  0  0  0  0  0  0  0  0
    5.8760  -43.8240   49.3870 H   0  0  0  0  0  0  0  0  0  0  0  0
    8.1320  -43.2310   50.1840 H   0  0  0  0  0  0  0  0  0  0  0  0
    9.4590  -42.5200   51.9460 H   0  0  0  0  0  0  0  0  0  0  0  0
    8.5670  -41.3870   53.7520 H   0  0  0  0  0  0  0  0  0  0  0  0
  1  2  1  0  0  0  0
  1  4  1  0  0  0  0
  3  5  1  0  0  0  0
  4  6  2  0  0  0  0
  3  7  1  0  0  0  0
  6  8  1  0  0  0  0
  8  9  2  0  0  0  0
  5 10  2  0  0  0  0
  9 10  1  0  0  0  0
  4 11  1  0  0  0  0
  7 11  2  0  0  0  0
 10 11  1  0  0  0  0
  2 12  1  0  0  0  0
  2 13  1  0  0  0  0
  1 14  1  0  0  0  0
  1 15  1  0  0  0  0
  6 16  1  0  0  0  0
  8 17  1  0  0  0  0
  9 18  1  0  0  0  0
M  END
$$$$
