8P3D
  PyMOL3.1          3D                             0

 68 70  0  0  0  0  0  0  0  0999 V2000
   -1.2580   -6.0720    7.4500 C   0  0  0  0  0  0  0  0  0  0  0  0
    1.6340   -2.9930   12.6420 N   0  0  0  0  0  0  0  0  0  0  0  0
    2.4810   -4.0300   10.5640 O   0  0  0  0  0  0  0  0  0  0  0  0
    1.3180   -3.4160   11.1410 S   0  0  0  0  0  0  0  0  0  0  0  0
   -0.2920   -6.7700    8.0960 C   0  0  0  0  0  0  0  0  0  0  0  0
    1.1410   -4.7180   14.8020 N   0  0  0  0  0  0  0  0  0  0  0  0
    1.1250   -7.5900   14.7320 O   0  0  0  0  0  0  0  0  0  0  0  0
    0.1120   -6.3280    9.3440 C   0  0  0  0  0  0  0  0  0  0  0  0
    1.7370   -7.6100   16.9020 N   0  0  0  0  0  0  0  0  0  0  0  0
    3.2950   -4.9310   15.2880 O   0  0  0  0  0  0  0  0  0  0  0  0
   -0.4270   -5.1930    9.9100 C   0  0  0  0  0  0  0  0  0  0  0  0
    4.7060  -10.7490   15.1170 N   0  0  0  0  0  0  0  0  0  0  0  0
    0.7300   -2.2740   10.5050 O   0  0  0  0  0  0  0  0  0  0  0  0
    0.0780   -4.7040   11.2370 C   0  0  0  0  0  0  0  0  0  0  0  0
    2.6800   -3.6800   13.3410 C   0  0  0  0  0  0  0  0  0  0  0  0
    2.4080   -4.4550   14.5810 C   0  0  0  0  0  0  0  0  0  0  0  0
    0.8540   -5.5270   15.9630 C   0  0  0  0  0  0  0  0  0  0  0  0
   -0.6410   -5.4700   16.2970 C   0  0  0  0  0  0  0  0  0  0  0  0
   -1.1950   -4.1620   16.8280 C   0  0  0  0  0  0  0  0  0  0  0  0
   -2.7190   -4.1870   16.9040 C   0  0  0  0  0  0  0  0  0  0  0  0
   -0.6280   -3.9120   18.2030 C   0  0  0  0  0  0  0  0  0  0  0  0
    1.2550   -6.9960   15.8140 C   0  0  0  0  0  0  0  0  0  0  0  0
    1.8620   -9.0600   16.9480 C   0  0  0  0  0  0  0  0  0  0  0  0
    3.2500   -9.5480   16.6210 C   0  0  0  0  0  0  0  0  0  0  0  0
    3.4970  -10.2710   15.4660 C   0  0  0  0  0  0  0  0  0  0  0  0
    5.7180  -10.4780   15.9550 C   0  0  0  0  0  0  0  0  0  0  0  0
    5.5630   -9.7720   17.1100 C   0  0  0  0  0  0  0  0  0  0  0  0
    4.3160   -9.3060   17.4520 C   0  0  0  0  0  0  0  0  0  0  0  0
    3.7510   -2.6250   13.6620 C   0  0  0  0  0  0  0  0  0  0  0  0
    3.1500   -1.4470   14.4660 C   0  0  0  0  0  0  0  0  0  0  0  0
    1.9960   -0.8320   13.6930 C   0  0  0  0  0  0  0  0  0  0  0  0
    0.9760   -1.9040   13.3610 C   0  0  0  0  0  0  0  0  0  0  0  0
   -1.3960   -4.5040    9.2020 C   0  0  0  0  0  0  0  0  0  0  0  0
   -1.8490   -4.9620    7.9710 C   0  0  0  0  0  0  0  0  0  0  0  0
   -1.6650   -6.5230    6.2400 F   0  0  0  0  0  0  0  0  0  0  0  0
    0.0940   -7.5340    7.7050 H   0  0  0  0  0  0  0  0  0  0  0  0
    0.7690   -6.8150    9.8160 H   0  0  0  0  0  0  0  0  0  0  0  0
   -0.6390   -4.3190   11.7570 H   0  0  0  0  0  0  0  0  0  0  0  0
    0.5020   -5.4190   11.7290 H   0  0  0  0  0  0  0  0  0  0  0  0
    2.9100   -4.3920   12.6940 H   0  0  0  0  0  0  0  0  0  0  0  0
    0.5220   -4.4180   14.2770 H   0  0  0  0  0  0  0  0  0  0  0  0
    1.4040   -5.1450   16.6980 H   0  0  0  0  0  0  0  0  0  0  0  0
   -0.8270   -6.1650   16.9650 H   0  0  0  0  0  0  0  0  0  0  0  0
   -1.1400   -5.6970   15.4830 H   0  0  0  0  0  0  0  0  0  0  0  0
   -0.9360   -3.4320   16.2070 H   0  0  0  0  0  0  0  0  0  0  0  0
   -3.0410   -3.3360   17.2470 H   0  0  0  0  0  0  0  0  0  0  0  0
   -3.0860   -4.3370   16.0160 H   0  0  0  0  0  0  0  0  0  0  0  0
   -3.0030   -4.9030   17.4960 H   0  0  0  0  0  0  0  0  0  0  0  0
   -1.0200   -3.1040   18.5740 H   0  0  0  0  0  0  0  0  0  0  0  0
    0.3370   -3.8040   18.1420 H   0  0  0  0  0  0  0  0  0  0  0  0
   -0.8320   -4.6660   18.7810 H   0  0  0  0  0  0  0  0  0  0  0  0
    1.9840   -7.1340   17.6070 H   0  0  0  0  0  0  0  0  0  0  0  0
    1.2280   -9.4530   16.3100 H   0  0  0  0  0  0  0  0  0  0  0  0
    1.6180   -9.3720   17.8450 H   0  0  0  0  0  0  0  0  0  0  0  0
    2.7690  -10.4400   14.8850 H   0  0  0  0  0  0  0  0  0  0  0  0
    6.5770  -10.7930   15.7310 H   0  0  0  0  0  0  0  0  0  0  0  0
    6.3040   -9.6050   17.6680 H   0  0  0  0  0  0  0  0  0  0  0  0
    4.1910   -8.8230   18.2540 H   0  0  0  0  0  0  0  0  0  0  0  0
    4.4760   -3.0440   14.1850 H   0  0  0  0  0  0  0  0  0  0  0  0
    4.1390   -2.2850   12.8210 H   0  0  0  0  0  0  0  0  0  0  0  0
    2.8300   -1.7690   15.3400 H   0  0  0  0  0  0  0  0  0  0  0  0
    3.8430   -0.7650   14.6260 H   0  0  0  0  0  0  0  0  0  0  0  0
    2.3210   -0.4290   12.8740 H   0  0  0  0  0  0  0  0  0  0  0  0
    1.5750   -0.1370   14.2220 H   0  0  0  0  0  0  0  0  0  0  0  0
    0.5730   -2.2500   14.1810 H   0  0  0  0  0  0  0  0  0  0  0  0
    0.2640   -1.5290   12.8070 H   0  0  0  0  0  0  0  0  0  0  0  0
   -1.7570   -3.7090    9.5610 H   0  0  0  0  0  0  0  0  0  0  0  0
   -2.5410   -4.5210    7.5120 H   0  0  0  0  0  0  0  0  0  0  0  0
  2  4  1  0  0  0  0
  3  4  2  0  0  0  0
  1  5  1  0  0  0  0
  5  8  2  0  0  0  0
  8 11  1  0  0  0  0
  4 13  2  0  0  0  0
  4 14  1  0  0  0  0
 11 14  1  0  0  0  0
  2 15  1  0  0  0  0
  6 16  1  0  0  0  0
 10 16  2  0  0  0  0
 15 16  1  0  0  0  0
  6 17  1  0  0  0  0
 17 18  1  0  0  0  0
 18 19  1  0  0  0  0
 19 20  1  0  0  0  0
 19 21  1  0  0  0  0
  7 22  2  0  0  0  0
  9 22  1  0  0  0  0
 17 22  1  0  0  0  0
  9 23  1  0  0  0  0
 23 24  1  0  0  0  0
 12 25  2  0  0  0  0
 24 25  1  0  0  0  0
 12 26  1  0  0  0  0
 26 27  2  0  0  0  0
 24 28  2  0  0  0  0
 27 28  1  0  0  0  0
 15 29  1  0  0  0  0
 29 30  1  0  0  0  0
 30 31  1  0  0  0  0
  2 32  1  0  0  0  0
 31 32  1  0  0  0  0
 11 33  2  0  0  0  0
  1 34  2  0  0  0  0
 33 34  1  0  0  0  0
  1 35  1  0  0  0  0
  5 36  1  0  0  0  0
  8 37  1  0  0  0  0
 14 38  1  0  0  0  0
 14 39  1  0  0  0  0
 15 40  1  0  0  0  0
  6 41  1  0  0  0  0
 17 42  1  0  0  0  0
 18 43  1  0  0  0  0
 18 44  1  0  0  0  0
 19 45  1  0  0  0  0
 20 46  1  0  0  0  0
 20 47  1  0  0  0  0
 20 48  1  0  0  0  0
 21 49  1  0  0  0  0
 21 50  1  0  0  0  0
 21 51  1  0  0  0  0
  9 52  1  0  0  0  0
 23 53  1  0  0  0  0
 23 54  1  0  0  0  0
 25 55  1  0  0  0  0
 26 56  1  0  0  0  0
 27 57  1  0  0  0  0
 28 58  1  0  0  0  0
 29 59  1  0  0  0  0
 29 60  1  0  0  0  0
 30 61  1  0  0  0  0
 30 62  1  0  0  0  0
 31 63  1  0  0  0  0
 31 64  1  0  0  0  0
 32 65  1  0  0  0  0
 32 66  1  0  0  0  0
 33 67  1  0  0  0  0
 34 68  1  0  0  0  0
M  END
$$$$
