8KFX
  PyMOL3.1          3D                             0

 35 39  0  0  0  0  0  0  0  0999 V2000
  120.1140  126.0020  165.0630 C   0  0  0  0  0  0  0  0  0  0  0  0
  124.0100  132.0620  166.7140 N   0  0  0  0  0  0  0  0  0  0  0  0
  120.6100  127.0080  164.1860 O   0  0  0  0  0  0  0  0  0  0  0  0
  121.9530  127.0160  163.9480 C   0  0  0  0  0  0  0  0  0  0  0  0
  128.0570  130.1060  168.6970 N   0  0  0  0  0  0  0  0  0  0  0  0
  121.5060  128.9800  162.6690 O   0  0  0  0  0  0  0  0  0  0  0  0
  122.8500  126.0820  164.4420 C   0  0  0  0  0  0  0  0  0  0  0  0
  128.1900  132.0220  167.4870 N   0  0  0  0  0  0  0  0  0  0  0  0
  126.0740  129.2880  167.9620 O   0  0  0  0  0  0  0  0  0  0  0  0
  124.2020  126.1840  164.1410 C   0  0  0  0  0  0  0  0  0  0  0  0
  124.6550  127.2120  163.3560 C   0  0  0  0  0  0  0  0  0  0  0  0
  123.7620  128.1530  162.8600 C   0  0  0  0  0  0  0  0  0  0  0  0
  122.4240  128.0540  163.1470 C   0  0  0  0  0  0  0  0  0  0  0  0
  121.5550  130.2370  163.2610 C   0  0  0  0  0  0  0  0  0  0  0  0
  121.1050  131.3510  162.5870 C   0  0  0  0  0  0  0  0  0  0  0  0
  121.1600  132.5780  163.2200 C   0  0  0  0  0  0  0  0  0  0  0  0
  121.6370  132.6840  164.5130 C   0  0  0  0  0  0  0  0  0  0  0  0
  122.0860  131.5650  165.1940 C   0  0  0  0  0  0  0  0  0  0  0  0
  122.0140  130.3340  164.5580 C   0  0  0  0  0  0  0  0  0  0  0  0
  122.6000  131.6730  166.6100 C   0  0  0  0  0  0  0  0  0  0  0  0
  124.4200  132.0030  168.1220 C   0  0  0  0  0  0  0  0  0  0  0  0
  125.8540  132.4570  168.2870 C   0  0  0  0  0  0  0  0  0  0  0  0
  126.7910  131.5890  167.4420 C   0  0  0  0  0  0  0  0  0  0  0  0
  126.3030  131.5460  165.9920 C   0  0  0  0  0  0  0  0  0  0  0  0
  124.8450  131.1420  165.9320 C   0  0  0  0  0  0  0  0  0  0  0  0
  126.9030  130.1850  168.0370 C   0  0  0  0  0  0  0  0  0  0  0  0
  128.8490  131.3530  168.6210 C   0  0  0  0  0  0  0  0  0  0  0  0
  128.5220  133.4160  167.2160 C   0  0  0  0  0  0  0  0  0  0  0  0
  128.7020  134.3040  168.4460 C   0  0  0  0  0  0  0  0  0  0  0  0
  128.5090  135.7600  168.1170 C   0  0  0  0  0  0  0  0  0  0  0  0
  127.3840  136.1890  167.4340 C   0  0  0  0  0  0  0  0  0  0  0  0
  127.2020  137.5310  167.1430 C   0  0  0  0  0  0  0  0  0  0  0  0
  128.1500  138.4530  167.5110 C   0  0  0  0  0  0  0  0  0  0  0  0
  129.2780  138.0410  168.1710 C   0  0  0  0  0  0  0  0  0  0  0  0
  129.4530  136.7040  168.4830 C   0  0  0  0  0  0  0  0  0  0  0  0
  1  3  1  0  0  0  0
  3  4  1  0  0  0  0
  4  7  2  0  0  0  0
  7 10  1  0  0  0  0
 10 11  2  0  0  0  0
 11 12  1  0  0  0  0
  4 13  1  0  0  0  0
  6 13  1  0  0  0  0
 12 13  2  0  0  0  0
  6 14  1  0  0  0  0
 14 15  1  0  0  0  0
 15 16  2  0  0  0  0
 16 17  1  0  0  0  0
 17 18  2  0  0  0  0
 14 19  2  0  0  0  0
 18 19  1  0  0  0  0
  2 20  1  0  0  0  0
 18 20  1  0  0  0  0
  2 21  1  0  0  0  0
 21 22  1  0  0  0  0
  8 23  1  0  0  0  0
 22 23  1  0  0  0  0
 23 24  1  0  0  0  0
  2 25  1  0  0  0  0
 24 25  1  0  0  0  0
  5 26  1  0  0  0  0
  9 26  2  0  0  0  0
 23 26  1  0  0  0  0
  5 27  1  0  0  0  0
  8 27  1  0  0  0  0
  8 28  1  0  0  0  0
 28 29  1  0  0  0  0
 29 30  1  0  0  0  0
 30 31  1  0  0  0  0
 31 32  2  0  0  0  0
 32 33  1  0  0  0  0
 33 34  2  0  0  0  0
 30 35  2  0  0  0  0
 34 35  1  0  0  0  0
M  END
$$$$
