8P41
  PyMOL3.1          3D                             0

 30 31  0  0  0  0  0  0  0  0999 V2000
   62.9140   36.7740   -8.7730 Cl  0  0  0  0  0  0  0  0  0  0  0  0
   58.3820   37.5750  -11.2220 O   0  0  0  0  0  0  0  0  0  0  0  0
   58.7180   38.7700  -10.9840 C   0  0  0  0  0  0  0  0  0  0  0  0
   58.0960   39.7830  -11.4200 O   0  0  0  0  0  0  0  0  0  0  0  0
   59.9660   39.0050  -10.1770 C   0  0  0  0  0  0  0  0  0  0  0  0
   60.7950   37.9600   -9.8430 C   0  0  0  0  0  0  0  0  0  0  0  0
   61.9470   38.1700   -9.1190 C   0  0  0  0  0  0  0  0  0  0  0  0
   62.3170   39.4360   -8.6990 C   0  0  0  0  0  0  0  0  0  0  0  0
   61.4890   40.4910   -9.0290 C   0  0  0  0  0  0  0  0  0  0  0  0
   60.3350   40.2650   -9.7570 C   0  0  0  0  0  0  0  0  0  0  0  0
   59.4720   41.3000  -10.1190 N   0  0  0  0  0  0  0  0  0  0  0  0
   59.6060   42.5910   -9.6910 C   0  0  0  0  0  0  0  0  0  0  0  0
   60.4650   43.0060   -8.9210 O   0  0  0  0  0  0  0  0  0  0  0  0
   58.5340   43.4410  -10.3090 C   0  0  0  0  0  0  0  0  0  0  0  0
   57.0740   43.5600   -9.2210 S   0  0  0  0  0  0  0  0  0  0  0  0
   56.2720   41.9930   -9.7220 C   0  0  0  0  0  0  0  0  0  0  0  0
   56.5290   40.8000   -8.8400 C   0  0  0  0  0  0  0  0  0  0  0  0
   55.8810   39.5980   -9.0550 C   0  0  0  0  0  0  0  0  0  0  0  0
   56.1300   38.5040   -8.2520 C   0  0  0  0  0  0  0  0  0  0  0  0
   57.0240   38.6060   -7.2160 C   0  0  0  0  0  0  0  0  0  0  0  0
   57.6640   39.7960   -7.0060 C   0  0  0  0  0  0  0  0  0  0  0  0
   57.4240   40.8920   -7.8010 C   0  0  0  0  0  0  0  0  0  0  0  0
   58.6190   39.8990   -5.8850 C   0  0  0  0  0  0  0  0  0  0  0  0
   55.4450   37.1980   -8.4550 C   0  0  0  0  0  0  0  0  0  0  0  0
   58.1450   40.8530   -5.0290 F   0  0  0  0  0  0  0  0  0  0  0  0
   58.7610   38.7180   -5.1940 F   0  0  0  0  0  0  0  0  0  0  0  0
   59.8680   40.2790   -6.2630 F   0  0  0  0  0  0  0  0  0  0  0  0
   54.2220   37.2260   -7.8560 F   0  0  0  0  0  0  0  0  0  0  0  0
   55.2180   36.9200   -9.7620 F   0  0  0  0  0  0  0  0  0  0  0  0
   56.1260   36.1100   -7.9670 F   0  0  0  0  0  0  0  0  0  0  0  0
  2  3  2  0  0  0  0
  3  4  1  0  0  0  0
  3  5  1  0  0  0  0
  5  6  2  0  0  0  0
  1  7  1  0  0  0  0
  6  7  1  0  0  0  0
  7  8  2  0  0  0  0
  8  9  1  0  0  0  0
  5 10  1  0  0  0  0
  9 10  2  0  0  0  0
 10 11  1  0  0  0  0
 11 12  1  0  0  0  0
 12 13  2  0  0  0  0
 12 14  1  0  0  0  0
 14 15  1  0  0  0  0
 15 16  1  0  0  0  0
 16 17  1  0  0  0  0
 17 18  1  0  0  0  0
 18 19  2  0  0  0  0
 19 20  1  0  0  0  0
 20 21  2  0  0  0  0
 17 22  2  0  0  0  0
 21 22  1  0  0  0  0
 21 23  1  0  0  0  0
 19 24  1  0  0  0  0
 23 25  1  0  0  0  0
 23 26  1  0  0  0  0
 23 27  1  0  0  0  0
 24 28  1  0  0  0  0
 24 29  1  0  0  0  0
 24 30  1  0  0  0  0
M  END
$$$$
