8HJ5
  PyMOL3.1          3D                             0

 31 34  0  0  0  0  0  0  0  0999 V2000
  128.4290  100.7550   81.3260 C   0  0  0  0  0  0  0  0  0  0  0  0
  130.7060  103.3320   82.3060 N   0  0  0  0  0  0  0  0  0  0  0  0
  128.3100  102.0450   81.8500 O   0  0  0  0  0  0  0  0  0  0  0  0
  130.5580  102.4140   83.7290 S   0  0  0  0  0  0  0  0  0  0  0  0
  127.8910  102.0520   83.1760 C   0  0  0  0  0  0  0  0  0  0  0  0
  123.0120  105.5640   81.1810 N   0  0  0  0  0  0  0  0  0  0  0  0
  131.1650  101.1040   83.5220 O   0  0  0  0  0  0  0  0  0  0  0  0
  126.5600  101.8950   83.4820 C   0  0  0  0  0  0  0  0  0  0  0  0
  123.6590  106.1880   83.4080 N   0  0  0  0  0  0  0  0  0  0  0  0
  131.3310  102.9630   84.8390 O   0  0  0  0  0  0  0  0  0  0  0  0
  126.1810  101.9020   84.8070 C   0  0  0  0  0  0  0  0  0  0  0  0
  129.2510  104.8940   80.6380 O   0  0  0  0  0  0  0  0  0  0  0  0
  127.1080  102.0620   85.8210 C   0  0  0  0  0  0  0  0  0  0  0  0
  128.4420  102.2200   85.5060 C   0  0  0  0  0  0  0  0  0  0  0  0
  128.8210  102.2140   84.1790 C   0  0  0  0  0  0  0  0  0  0  0  0
  130.9170  104.7590   82.3280 C   0  0  0  0  0  0  0  0  0  0  0  0
  131.8470  105.3420   83.1670 C   0  0  0  0  0  0  0  0  0  0  0  0
  132.0160  106.7120   83.1460 C   0  0  0  0  0  0  0  0  0  0  0  0
  131.2630  107.4870   82.2840 C   0  0  0  0  0  0  0  0  0  0  0  0
  130.3410  106.8990   81.4400 C   0  0  0  0  0  0  0  0  0  0  0  0
  130.1680  105.5300   81.4730 C   0  0  0  0  0  0  0  0  0  0  0  0
  127.9360  105.1240   81.0460 C   0  0  0  0  0  0  0  0  0  0  0  0
  127.6500  105.5300   82.3330 C   0  0  0  0  0  0  0  0  0  0  0  0
  126.3340  105.7510   82.7030 C   0  0  0  0  0  0  0  0  0  0  0  0
  125.3260  105.5490   81.7680 C   0  0  0  0  0  0  0  0  0  0  0  0
  125.6370  105.1380   80.4940 C   0  0  0  0  0  0  0  0  0  0  0  0
  126.9410  104.9240   80.1260 C   0  0  0  0  0  0  0  0  0  0  0  0
  124.6620  104.9360   79.5600 C   0  0  0  0  0  0  0  0  0  0  0  0
  123.3710  105.1660   79.9730 C   0  0  0  0  0  0  0  0  0  0  0  0
  123.9890  105.7520   82.0700 C   0  0  0  0  0  0  0  0  0  0  0  0
  131.4470  108.9990   82.2580 C   0  0  0  0  0  0  0  0  0  0  0  0
  1  3  1  0  0  0  0
  2  4  1  0  0  0  0
  3  5  1  0  0  0  0
  4  7  2  0  0  0  0
  5  8  1  0  0  0  0
  4 10  2  0  0  0  0
  8 11  2  0  0  0  0
 11 13  1  0  0  0  0
 13 14  2  0  0  0  0
  4 15  1  0  0  0  0
  5 15  2  0  0  0  0
 14 15  1  0  0  0  0
  2 16  1  0  0  0  0
 16 17  1  0  0  0  0
 17 18  2  0  0  0  0
 18 19  1  0  0  0  0
 19 20  2  0  0  0  0
 12 21  1  0  0  0  0
 16 21  2  0  0  0  0
 20 21  1  0  0  0  0
 12 22  1  0  0  0  0
 22 23  1  0  0  0  0
 23 24  2  0  0  0  0
 24 25  1  0  0  0  0
 25 26  1  0  0  0  0
 22 27  2  0  0  0  0
 26 27  1  0  0  0  0
 26 28  2  0  0  0  0
  6 29  2  0  0  0  0
 28 29  1  0  0  0  0
  6 30  1  0  0  0  0
  9 30  1  0  0  0  0
 25 30  2  0  0  0  0
 19 31  1  0  0  0  0
M  END
$$$$
