6LIL
  PyMOL3.1          3D                             0

 27 31  0  0  0  0  0  0  0  0999 V2000
  -12.6330  -11.4570    2.0030 C   0  0  0  0  0  0  0  0  0  0  0  0
  -12.3730  -17.7130   -0.3060 N   0  0  0  0  0  0  0  0  0  0  0  0
  -13.1330  -14.0050    1.1260 O   0  0  0  0  0  0  0  0  0  0  0  0
  -12.4610  -10.1780    2.4770 C   0  0  0  0  0  0  0  0  0  0  0  0
  -13.6650  -17.3520   -0.7020 N   0  0  0  0  0  0  0  0  0  0  0  0
  -13.2040  -13.1240    6.4460 O   0  0  0  0  0  0  0  0  0  0  0  0
  -12.5370   -9.9320    3.8440 C   0  0  0  0  0  0  0  0  0  0  0  0
   -9.9750  -19.4030   -3.3090 N   0  0  0  0  0  0  0  0  0  0  0  0
  -12.7970  -10.9510    4.7310 C   0  0  0  0  0  0  0  0  0  0  0  0
  -12.9700  -12.2460    4.2610 C   0  0  0  0  0  0  0  0  0  0  0  0
  -12.8690  -12.5020    2.8930 C   0  0  0  0  0  0  0  0  0  0  0  0
  -13.2270  -13.3270    5.2340 C   0  0  0  0  0  0  0  0  0  0  0  0
  -13.4160  -14.7040    4.7000 C   0  0  0  0  0  0  0  0  0  0  0  0
  -13.2710  -14.9880    3.2990 C   0  0  0  0  0  0  0  0  0  0  0  0
  -13.0420  -13.8640    2.3410 C   0  0  0  0  0  0  0  0  0  0  0  0
  -13.6910  -15.7330    5.5860 C   0  0  0  0  0  0  0  0  0  0  0  0
  -13.8740  -17.0150    5.1430 C   0  0  0  0  0  0  0  0  0  0  0  0
  -13.7440  -17.3100    3.7900 C   0  0  0  0  0  0  0  0  0  0  0  0
  -13.4890  -16.3090    2.8550 C   0  0  0  0  0  0  0  0  0  0  0  0
  -13.3350  -16.7370    1.4600 C   0  0  0  0  0  0  0  0  0  0  0  0
  -12.1620  -17.3890    1.0160 C   0  0  0  0  0  0  0  0  0  0  0  0
  -14.2320  -16.8030    0.3730 C   0  0  0  0  0  0  0  0  0  0  0  0
  -11.4490  -18.3690   -1.2760 C   0  0  0  0  0  0  0  0  0  0  0  0
  -10.6860  -17.3370   -2.1090 C   0  0  0  0  0  0  0  0  0  0  0  0
  -10.1410  -17.9450   -3.4010 C   0  0  0  0  0  0  0  0  0  0  0  0
  -11.2370  -20.1210   -3.0620 C   0  0  0  0  0  0  0  0  0  0  0  0
  -12.1940  -19.3400   -2.1890 C   0  0  0  0  0  0  0  0  0  0  0  0
  1  4  1  0  0  0  0
  2  5  1  0  0  0  0
  4  7  2  0  0  0  0
  7  9  1  0  0  0  0
  9 10  2  0  0  0  0
  1 11  2  0  0  0  0
 10 11  1  0  0  0  0
  6 12  2  0  0  0  0
 10 12  1  0  0  0  0
 12 13  1  0  0  0  0
 13 14  2  0  0  0  0
  3 15  2  0  0  0  0
 11 15  1  0  0  0  0
 14 15  1  0  0  0  0
 13 16  1  0  0  0  0
 16 17  2  0  0  0  0
 17 18  1  0  0  0  0
 14 19  1  0  0  0  0
 18 19  2  0  0  0  0
 19 20  1  0  0  0  0
  2 21  1  0  0  0  0
 20 21  2  0  0  0  0
  5 22  2  0  0  0  0
 20 22  1  0  0  0  0
  2 23  1  0  0  0  0
 23 24  1  0  0  0  0
  8 25  1  0  0  0  0
 24 25  1  0  0  0  0
  8 26  1  0  0  0  0
 23 27  1  0  0  0  0
 26 27  1  0  0  0  0
M  END
$$$$
