8I5Y
  PyMOL3.1          3D                             0

 23 25  0  0  0  0  0  0  0  0999 V2000
  137.5720  138.4030  133.9580 O   0  0  0  0  0  0  0  0  0  0  0  0
  131.0820  133.3970  136.5170 O   0  0  0  0  0  0  0  0  0  0  0  0
  136.1190  137.5520  136.0080 N   0  0  0  0  0  0  0  0  0  0  0  0
  139.5390  138.5580  135.1140 N   0  0  0  0  0  0  0  0  0  0  0  0
  135.7400  136.6170  137.2980 C   0  0  0  0  0  0  0  0  0  0  0  0
  136.7900  135.8920  137.4780 C   0  0  0  0  0  0  0  0  0  0  0  0
  137.2590  137.9970  136.3180 C   0  0  0  0  0  0  0  0  0  0  0  0
  137.9350  136.8350  137.1290 C   0  0  0  0  0  0  0  0  0  0  0  0
  134.4780  135.7510  137.0700 C   0  0  0  0  0  0  0  0  0  0  0  0
  138.1100  138.3340  135.0090 C   0  0  0  0  0  0  0  0  0  0  0  0
  133.3810  136.2690  136.4000 C   0  0  0  0  0  0  0  0  0  0  0  0
  134.4410  134.4580  137.5600 C   0  0  0  0  0  0  0  0  0  0  0  0
  132.2520  135.4860  136.2140 C   0  0  0  0  0  0  0  0  0  0  0  0
  133.3140  133.6790  137.3750 C   0  0  0  0  0  0  0  0  0  0  0  0
  132.2200  134.1900  136.7000 C   0  0  0  0  0  0  0  0  0  0  0  0
  129.9960  133.8570  137.2650 C   0  0  0  0  0  0  0  0  0  0  0  0
  129.3420  132.7130  138.0430 C   0  0  0  0  0  0  0  0  0  0  0  0
  130.0840  131.9240  138.9100 C   0  0  0  0  0  0  0  0  0  0  0  0
  127.9850  132.4790  137.8910 C   0  0  0  0  0  0  0  0  0  0  0  0
  129.4740  130.8980  139.6120 C   0  0  0  0  0  0  0  0  0  0  0  0
  127.3760  131.4560  138.5970 C   0  0  0  0  0  0  0  0  0  0  0  0
  128.1180  130.6640  139.4560 C   0  0  0  0  0  0  0  0  0  0  0  0
  131.4190  132.1410  139.0760 F   0  0  0  0  0  0  0  0  0  0  0  0
  3  5  1  0  0  0  0
  5  6  1  0  0  0  0
  3  7  1  0  0  0  0
  6  8  1  0  0  0  0
  7  8  1  0  0  0  0
  5  9  1  0  0  0  0
  1 10  2  0  0  0  0
  4 10  1  0  0  0  0
  7 10  1  0  0  0  0
  9 11  1  0  0  0  0
  9 12  2  0  0  0  0
 11 13  2  0  0  0  0
 12 14  1  0  0  0  0
  2 15  1  0  0  0  0
 13 15  1  0  0  0  0
 14 15  2  0  0  0  0
  2 16  1  0  0  0  0
 16 17  1  0  0  0  0
 17 18  1  0  0  0  0
 17 19  2  0  0  0  0
 18 20  2  0  0  0  0
 19 21  1  0  0  0  0
 20 22  1  0  0  0  0
 21 22  2  0  0  0  0
 18 23  1  0  0  0  0
M  END
$$$$
