9B1H
  PyMOL3.1          3D                             0

 24 27  0  0  0  0  0  0  0  0999 V2000
  119.1710  123.7550  135.7520 C   0  0  0  0  0  0  0  0  0  0  0  0
  119.4370  124.5140  137.0140 C   0  0  0  0  0  0  0  0  0  0  0  0
  120.0680  123.1730  136.8000 C   0  0  0  0  0  0  0  0  0  0  0  0
  121.5470  123.0430  136.5850 C   0  0  0  0  0  0  0  0  0  0  0  0
  122.4090  123.9830  137.0820 C   0  0  0  0  0  0  0  0  0  0  0  0
  123.7810  123.8800  136.9320 C   0  0  0  0  0  0  0  0  0  0  0  0
  124.3380  122.8110  136.2820 C   0  0  0  0  0  0  0  0  0  0  0  0
  123.4970  121.7970  135.7250 C   0  0  0  0  0  0  0  0  0  0  0  0
  123.9970  120.7270  134.9370 C   0  0  0  0  0  0  0  0  0  0  0  0
  123.1580  119.8290  134.3440 C   0  0  0  0  0  0  0  0  0  0  0  0
  121.7910  119.9420  134.4980 C   0  0  0  0  0  0  0  0  0  0  0  0
  121.2570  120.9510  135.2450 C   0  0  0  0  0  0  0  0  0  0  0  0
  122.0780  121.9160  135.8830 C   0  0  0  0  0  0  0  0  0  0  0  0
  125.7480  122.7870  135.9980 N   0  0  0  0  0  0  0  0  0  0  0  0
  126.7450  123.6830  135.6390 C   0  0  0  0  0  0  0  0  0  0  0  0
  127.9400  123.1830  135.8500 N   0  0  0  0  0  0  0  0  0  0  0  0
  127.7800  121.9160  136.3690 N   0  0  0  0  0  0  0  0  0  0  0  0
  126.5020  121.6950  136.4550 C   0  0  0  0  0  0  0  0  0  0  0  0
  126.3580  125.2510  134.9800 S   0  0  0  0  0  0  0  0  0  0  0  0
  128.0270  125.8410  134.5910 C   0  0  0  0  0  0  0  0  0  0  0  0
  129.0650  125.7040  135.6940 C   0  0  0  0  0  0  0  0  0  0  0  0
  130.2410  125.4860  135.3380 O   0  0  0  0  0  0  0  0  0  0  0  0
  128.6850  125.7980  136.8840 O   0  0  0  0  0  0  0  0  0  0  0  0
  125.8870  120.1510  137.2930 Br  0  0  0  0  0  0  0  0  0  0  0  0
  1  2  1  0  0  0  0
  1  3  1  0  0  0  0
  2  3  1  0  0  0  0
  3  4  1  0  0  0  0
  4  5  2  0  0  0  0
  5  6  1  0  0  0  0
  6  7  2  0  0  0  0
  7  8  1  0  0  0  0
  8  9  2  0  0  0  0
  9 10  1  0  0  0  0
 10 11  2  0  0  0  0
 11 12  1  0  0  0  0
  4 13  1  0  0  0  0
  8 13  1  0  0  0  0
 12 13  2  0  0  0  0
  7 14  1  0  0  0  0
 14 15  1  0  0  0  0
 15 16  2  0  0  0  0
 16 17  1  0  0  0  0
 14 18  1  0  0  0  0
 17 18  2  0  0  0  0
 15 19  1  0  0  0  0
 19 20  1  0  0  0  0
 20 21  1  0  0  0  0
 21 22  2  0  0  0  0
 21 23  1  0  0  0  0
 18 24  1  0  0  0  0
M  END
$$$$
