8HDO
  PyMOL3.1          3D                             0

 27 29  0  0  0  0  0  0  0  0999 V2000
  136.7290  127.3690  108.0670 C   0  0  0  0  0  0  0  0  0  0  0  0
  140.8350  131.1550  106.7680 N   0  0  0  0  0  0  0  0  0  0  0  0
  138.8680  126.1770  105.2780 C   0  0  0  0  0  0  0  0  0  0  0  0
  138.0620  127.2110  105.4770 C   0  0  0  0  0  0  0  0  0  0  0  0
  138.4530  128.3060  106.4980 C   0  0  0  0  0  0  0  0  0  0  0  0
  137.8270  128.3750  107.7100 C   0  0  0  0  0  0  0  0  0  0  0  0
  138.1880  129.3670  108.6240 C   0  0  0  0  0  0  0  0  0  0  0  0
  136.0940  131.8830  111.4920 N   0  0  0  0  0  0  0  0  0  0  0  0
  137.3550  129.4670  110.2460 S   0  0  0  0  0  0  0  0  0  0  0  0
  135.9150  126.6190  108.3240 N   0  0  0  0  0  0  0  0  0  0  0  0
  140.6650  129.0800  103.8250 N   0  0  0  0  0  0  0  0  0  0  0  0
  138.3220  130.5510  111.3550 C   0  0  0  0  0  0  0  0  0  0  0  0
  137.3720  131.5090  112.0950 C   0  0  0  0  0  0  0  0  0  0  0  0
  137.6780  131.9460  113.1570 O   0  0  0  0  0  0  0  0  0  0  0  0
  139.7880  130.1930  107.1040 C   0  0  0  0  0  0  0  0  0  0  0  0
  139.1620  130.2610  108.3100 N   0  0  0  0  0  0  0  0  0  0  0  0
  138.4830  125.0910  104.2620 C   0  0  0  0  0  0  0  0  0  0  0  0
  137.3480  125.1770  103.5820 C   0  0  0  0  0  0  0  0  0  0  0  0
  137.7840  124.1950  101.4640 C   0  0  0  0  0  0  0  0  0  0  0  0
  138.8130  123.0390  101.4700 C   0  0  0  0  0  0  0  0  0  0  0  0
  140.2890  123.4700  101.4910 C   0  0  0  0  0  0  0  0  0  0  0  0
  139.6770  122.8940  100.2070 C   0  0  0  0  0  0  0  0  0  0  0  0
  136.4120  126.3750  103.8110 C   0  0  0  0  0  0  0  0  0  0  0  0
  136.7440  127.3160  104.6890 C   0  0  0  0  0  0  0  0  0  0  0  0
  139.4320  129.2060  106.1870 C   0  0  0  0  0  0  0  0  0  0  0  0
  140.1440  129.1370  104.8320 C   0  0  0  0  0  0  0  0  0  0  0  0
  137.0110  124.1650  102.6490 O   0  0  0  0  0  0  0  0  0  0  0  0
  3  4  1  0  0  0  0
  4  5  1  0  0  0  0
  1  6  1  0  0  0  0
  5  6  2  0  0  0  0
  6  7  1  0  0  0  0
  7  9  1  0  0  0  0
  1 10  3  0  0  0  0
  9 12  1  0  0  0  0
  8 13  1  0  0  0  0
 12 13  1  0  0  0  0
 13 14  2  0  0  0  0
  2 15  1  0  0  0  0
  7 16  2  0  0  0  0
 15 16  1  0  0  0  0
  3 17  2  0  0  0  0
 17 18  1  0  0  0  0
 19 20  1  0  0  0  0
 20 21  1  0  0  0  0
 20 22  1  0  0  0  0
 21 22  1  0  0  0  0
 18 23  2  0  0  0  0
  4 24  2  0  0  0  0
 23 24  1  0  0  0  0
  5 25  1  0  0  0  0
 15 25  2  0  0  0  0
 11 26  3  0  0  0  0
 25 26  1  0  0  0  0
 18 27  1  0  0  0  0
 19 27  1  0  0  0  0
M  END
$$$$
