8JEI
  PyMOL3.1          3D                             0

 16 16  0  0  0  0  0  0  0  0999 V2000
  145.2820  121.4490   92.9400 C   0  0  0  0  0  0  0  0  0  0  0  0
  143.8700  122.0450   92.8440 C   0  0  0  0  0  0  0  0  0  0  0  0
  143.7810  123.2210   91.8720 C   0  0  0  0  0  0  0  0  0  0  0  0
  142.3500  123.5040   91.6870 N   0  0  0  0  0  0  0  0  0  0  0  0
  141.5780  123.9530   92.7770 C   0  0  0  0  0  0  0  0  0  0  0  0
  142.0550  124.9610   93.6190 C   0  0  0  0  0  0  0  0  0  0  0  0
  141.2980  125.3780   94.7110 C   0  0  0  0  0  0  0  0  0  0  0  0
  140.0060  124.8660   94.9600 C   0  0  0  0  0  0  0  0  0  0  0  0
  139.5360  123.8440   94.1300 C   0  0  0  0  0  0  0  0  0  0  0  0
  140.3230  123.4080   93.0730 C   0  0  0  0  0  0  0  0  0  0  0  0
  139.8560  122.3080   92.3240 N   0  3  0  0  0  0  0  0  0  0  0  0
  140.0240  121.1840   92.7610 O   0  5  0  0  0  0  0  0  0  0  0  0
  139.2630  122.4390   91.2640 O   0  0  0  0  0  0  0  0  0  0  0  0
  139.1430  125.3800   96.0240 C   0  0  0  0  0  0  0  0  0  0  0  0
  139.2280  126.5680   96.4470 O   0  5  0  0  0  0  0  0  0  0  0  0
  138.2120  124.6650   96.4810 O   0  0  0  0  0  0  0  0  0  0  0  0
  1  2  1  0  0  0  0
  2  3  1  0  0  0  0
  3  4  1  0  0  0  0
  4  5  1  0  0  0  0
  5  6  1  0  0  0  0
  6  7  2  0  0  0  0
  7  8  1  0  0  0  0
  8  9  2  0  0  0  0
  5 10  2  0  0  0  0
  9 10  1  0  0  0  0
 10 11  1  0  0  0  0
 11 12  2  0  0  0  0
 11 13  1  0  0  0  0
  8 14  1  0  0  0  0
 14 15  2  0  0  0  0
 14 16  1  0  0  0  0
M  END
$$$$
