7M94
  PyMOL3.1          3D                             0

 27 30  0  0  0  0  0  0  0  0999 V2000
    2.3053  -22.3561   33.2894 N   0  0  0  0  0  0  0  0  0  0  0  0
    0.0196  -23.0041   32.7546 C   0  0  0  0  0  0  0  0  0  0  0  0
   -0.0748  -26.9780   29.3979 O   0  0  0  0  0  0  0  0  0  0  0  0
    0.9093  -22.1397   33.6296 C   0  0  0  0  0  0  0  0  0  0  0  0
   -0.5447  -26.5523   31.5905 N   0  0  0  0  0  0  0  0  0  0  0  0
    2.6309  -19.8034   32.1865 O   0  0  0  0  0  0  0  0  0  0  0  0
    2.6492  -23.7212   33.6681 C   0  0  0  0  0  0  0  0  0  0  0  0
    1.8622  -24.7144   32.8141 C   0  0  0  0  0  0  0  0  0  0  0  0
    0.3461  -24.4957   32.7966 C   0  0  0  0  0  0  0  0  0  0  0  0
   -0.2587  -25.1189   31.5605 C   0  0  0  0  0  0  0  0  0  0  0  0
   -0.9766  -27.2685   32.7924 C   0  0  0  0  0  0  0  0  0  0  0  0
   -1.1782  -28.6635   32.2759 C   0  0  0  0  0  0  0  0  0  0  0  0
   -1.6408  -29.8091   32.9079 C   0  0  0  0  0  0  0  0  0  0  0  0
   -1.7587  -30.9899   32.1935 C   0  0  0  0  0  0  0  0  0  0  0  0
   -1.4116  -31.0321   30.8540 C   0  0  0  0  0  0  0  0  0  0  0  0
   -0.9444  -29.8948   30.2134 C   0  0  0  0  0  0  0  0  0  0  0  0
   -0.8352  -28.7066   30.9350 C   0  0  0  0  0  0  0  0  0  0  0  0
   -0.4330  -27.3486   30.5003 C   0  0  0  0  0  0  0  0  0  0  0  0
    3.1752  -21.3566   33.9072 C   0  0  0  0  0  0  0  0  0  0  0  0
    3.2845  -20.0181   33.1914 C   0  0  0  0  0  0  0  0  0  0  0  0
    4.2043  -18.9804   33.7369 C   0  0  0  0  0  0  0  0  0  0  0  0
    4.2993  -17.7551   33.0877 C   0  0  0  0  0  0  0  0  0  0  0  0
    5.1883  -16.7891   33.5214 C   0  0  0  0  0  0  0  0  0  0  0  0
    5.9708  -17.0686   34.6065 C   0  0  0  0  0  0  0  0  0  0  0  0
    5.9009  -18.2533   35.2890 C   0  0  0  0  0  0  0  0  0  0  0  0
    5.0076  -19.2135   34.8470 C   0  0  0  0  0  0  0  0  0  0  0  0
    6.8747  -16.1363   35.0116 F   0  0  0  0  0  0  0  0  0  0  0  0
  1  4  1  0  0  0  0
  2  4  1  0  0  0  0
  1  7  1  0  0  0  0
  7  8  1  0  0  0  0
  2  9  1  0  0  0  0
  8  9  1  0  0  0  0
  5 10  1  0  0  0  0
  9 10  1  0  0  0  0
  5 11  1  0  0  0  0
 11 12  1  0  0  0  0
 12 13  1  0  0  0  0
 13 14  2  0  0  0  0
 14 15  1  0  0  0  0
 15 16  2  0  0  0  0
 12 17  2  0  0  0  0
 16 17  1  0  0  0  0
  3 18  2  0  0  0  0
  5 18  1  0  0  0  0
 17 18  1  0  0  0  0
  1 19  1  0  0  0  0
  6 20  2  0  0  0  0
 19 20  1  0  0  0  0
 20 21  1  0  0  0  0
 21 22  1  0  0  0  0
 22 23  2  0  0  0  0
 23 24  1  0  0  0  0
 24 25  2  0  0  0  0
 21 26  2  0  0  0  0
 25 26  1  0  0  0  0
 24 27  1  0  0  0  0
M  END
$$$$
