8C3U
  PyMOL3.1          3D                             0

 70 78  0  0  0  0  0  0  0  0999 V2000
  -21.0470   -0.9020  -47.3650 C   0  0  0  0  0  0  0  0  0  0  0  0
  -19.4600   -2.4680  -46.1020 C   0  0  0  0  0  0  0  0  0  0  0  0
  -20.5350   -1.5560  -46.0670 C   0  0  0  0  0  0  0  0  0  0  0  0
  -21.1800   -1.2550  -44.8530 C   0  0  0  0  0  0  0  0  0  0  0  0
  -20.6990   -1.8770  -43.7060 C   0  0  0  0  0  0  0  0  0  0  0  0
  -19.6390   -2.7760  -43.7400 C   0  0  0  0  0  0  0  0  0  0  0  0
  -18.9790   -3.0790  -44.9350 C   0  0  0  0  0  0  0  0  0  0  0  0
  -21.1850   -1.6730  -42.4030 N   0  0  0  0  0  0  0  0  0  0  0  0
  -20.4950   -2.4430  -41.5430 C   0  0  0  0  0  0  0  0  0  0  0  0
  -19.3360   -3.1380  -42.2710 C   0  0  0  0  0  0  0  0  0  0  0  0
  -20.6930   -2.5410  -40.3490 O   0  0  0  0  0  0  0  0  0  0  0  0
  -19.2820   -4.6660  -42.0640 C   0  0  0  0  0  0  0  0  0  0  0  0
  -18.0820   -5.3010  -41.7160 C   0  0  0  0  0  0  0  0  0  0  0  0
  -18.0700   -6.6710  -41.4600 C   0  0  0  0  0  0  0  0  0  0  0  0
  -19.2390   -7.4310  -41.6060 C   0  0  0  0  0  0  0  0  0  0  0  0
  -20.4420   -6.8120  -41.9200 C   0  0  0  0  0  0  0  0  0  0  0  0
  -20.4620   -5.4340  -42.1730 C   0  0  0  0  0  0  0  0  0  0  0  0
  -21.6730   -4.8340  -42.5170 O   0  0  0  0  0  0  0  0  0  0  0  0
  -16.4140   -1.0650  -41.8050 N   0  0  0  0  0  0  0  0  0  0  0  0
  -17.3610   -1.5570  -42.5450 C   0  0  0  0  0  0  0  0  0  0  0  0
  -18.1130   -2.3830  -41.8050 C   0  0  0  0  0  0  0  0  0  0  0  0
  -17.5410   -2.3340  -40.4540 C   0  0  0  0  0  0  0  0  0  0  0  0
  -16.5470   -1.5560  -40.5540 N   0  0  0  0  0  0  0  0  0  0  0  0
  -16.8130   -7.3820  -41.1280 C   0  0  0  0  0  0  0  0  0  0  0  0
  -15.7400   -7.2380  -42.0100 C   0  0  0  0  0  0  0  0  0  0  0  0
  -14.5410   -7.9020  -41.7570 C   0  0  0  0  0  0  0  0  0  0  0  0
  -14.4320   -8.7500  -40.6540 C   0  0  0  0  0  0  0  0  0  0  0  0
  -15.5100   -8.8970  -39.7640 C   0  0  0  0  0  0  0  0  0  0  0  0
  -16.7200   -8.2380  -40.0110 C   0  0  0  0  0  0  0  0  0  0  0  0
  -17.8100   -8.3260  -38.9630 C   0  0  0  0  0  0  0  0  0  0  0  0
  -13.1500   -9.5020  -40.4090 C   0  0  0  0  0  0  0  0  0  0  0  0
  -18.2190   -7.3130  -38.4110 O   0  0  0  0  0  0  0  0  0  0  0  0
  -13.1770  -10.4910  -39.6910 O   0  0  0  0  0  0  0  0  0  0  0  0
  -12.0170   -9.0670  -40.9550 O   0  0  0  0  0  0  0  0  0  0  0  0
  -18.3050   -9.5050  -38.5960 O   0  0  0  0  0  0  0  0  0  0  0  0
    2.2860  -18.9050  -26.1480 C   0  0  0  0  0  0  0  0  0  0  0  0
    2.5100  -17.4310  -24.0890 C   0  0  0  0  0  0  0  0  0  0  0  0
    3.1260  -18.2340  -25.0630 C   0  0  0  0  0  0  0  0  0  0  0  0
    4.5180  -18.4070  -25.0870 C   0  0  0  0  0  0  0  0  0  0  0  0
    5.2550  -17.7610  -24.1000 C   0  0  0  0  0  0  0  0  0  0  0  0
    4.6540  -16.9880  -23.1250 C   0  0  0  0  0  0  0  0  0  0  0  0
    3.2640  -16.8110  -23.0780 C   0  0  0  0  0  0  0  0  0  0  0  0
    6.6630  -17.8430  -23.9380 N   0  0  0  0  0  0  0  0  0  0  0  0
    7.0270  -17.1080  -22.8780 C   0  0  0  0  0  0  0  0  0  0  0  0
    5.7760  -16.5820  -22.1630 C   0  0  0  0  0  0  0  0  0  0  0  0
    8.1640  -16.9110  -22.4890 O   0  0  0  0  0  0  0  0  0  0  0  0
    5.7820  -15.0560  -21.9130 C   0  0  0  0  0  0  0  0  0  0  0  0
    5.4680  -14.5400  -20.6490 C   0  0  0  0  0  0  0  0  0  0  0  0
    5.5750  -13.1740  -20.4130 C   0  0  0  0  0  0  0  0  0  0  0  0
    5.9170  -12.3010  -21.4540 C   0  0  0  0  0  0  0  0  0  0  0  0
    6.2480  -12.7920  -22.7080 C   0  0  0  0  0  0  0  0  0  0  0  0
    6.1500  -14.1690  -22.9430 C   0  0  0  0  0  0  0  0  0  0  0  0
    6.4460  -14.6530  -24.2110 O   0  0  0  0  0  0  0  0  0  0  0  0
    5.0830  -18.9170  -19.4880 N   0  0  0  0  0  0  0  0  0  0  0  0
    4.7990  -18.3740  -20.6350 C   0  0  0  0  0  0  0  0  0  0  0  0
    5.7130  -17.4420  -20.9140 C   0  0  0  0  0  0  0  0  0  0  0  0
    6.6580  -17.4830  -19.7870 C   0  0  0  0  0  0  0  0  0  0  0  0
    6.2030  -18.3530  -18.9970 N   0  0  0  0  0  0  0  0  0  0  0  0
    5.2240  -12.6050  -19.0870 C   0  0  0  0  0  0  0  0  0  0  0  0
    3.9530  -12.8800  -18.5810 C   0  0  0  0  0  0  0  0  0  0  0  0
    3.5870  -12.3630  -17.3350 C   0  0  0  0  0  0  0  0  0  0  0  0
    4.4290  -11.4800  -16.6520 C   0  0  0  0  0  0  0  0  0  0  0  0
    5.6910  -11.1940  -17.1690 C   0  0  0  0  0  0  0  0  0  0  0  0
    6.0830  -11.7370  -18.3960 C   0  0  0  0  0  0  0  0  0  0  0  0
    7.4990  -11.4900  -18.8450 C   0  0  0  0  0  0  0  0  0  0  0  0
    3.9770  -10.8610  -15.3490 C   0  0  0  0  0  0  0  0  0  0  0  0
    8.2310  -12.4390  -19.0250 O   0  0  0  0  0  0  0  0  0  0  0  0
    4.4970   -9.8310  -14.9440 O   0  0  0  0  0  0  0  0  0  0  0  0
    3.0170  -11.4560  -14.6580 O   0  0  0  0  0  0  0  0  0  0  0  0
    7.9580  -10.2590  -19.0040 O   0  0  0  0  0  0  0  0  0  0  0  0
  1  3  1  0  0  0  0
  2  3  1  0  0  0  0
  3  4  2  0  0  0  0
  4  5  1  0  0  0  0
  5  6  2  0  0  0  0
  2  7  2  0  0  0  0
  6  7  1  0  0  0  0
  5  8  1  0  0  0  0
  8  9  1  0  0  0  0
  6 10  1  0  0  0  0
  9 10  1  0  0  0  0
  9 11  2  0  0  0  0
 10 12  1  0  0  0  0
 12 13  1  0  0  0  0
 13 14  2  0  0  0  0
 14 15  1  0  0  0  0
 15 16  2  0  0  0  0
 12 17  2  0  0  0  0
 16 17  1  0  0  0  0
 17 18  1  0  0  0  0
 19 20  1  0  0  0  0
 10 21  1  0  0  0  0
 20 21  2  0  0  0  0
 21 22  1  0  0  0  0
 19 23  1  0  0  0  0
 22 23  2  0  0  0  0
 14 24  1  0  0  0  0
 24 25  1  0  0  0  0
 25 26  2  0  0  0  0
 26 27  1  0  0  0  0
 27 28  2  0  0  0  0
 24 29  2  0  0  0  0
 28 29  1  0  0  0  0
 29 30  1  0  0  0  0
 27 31  1  0  0  0  0
 30 32  1  0  0  0  0
 31 33  1  0  0  0  0
 31 34  2  0  0  0  0
 30 35  2  0  0  0  0
 36 38  1  0  0  0  0
 37 38  1  0  0  0  0
 38 39  2  0  0  0  0
 39 40  1  0  0  0  0
 40 41  2  0  0  0  0
 37 42  2  0  0  0  0
 41 42  1  0  0  0  0
 40 43  1  0  0  0  0
 43 44  1  0  0  0  0
 41 45  1  0  0  0  0
 44 45  1  0  0  0  0
 44 46  2  0  0  0  0
 45 47  1  0  0  0  0
 47 48  1  0  0  0  0
 48 49  2  0  0  0  0
 49 50  1  0  0  0  0
 50 51  2  0  0  0  0
 47 52  2  0  0  0  0
 51 52  1  0  0  0  0
 52 53  1  0  0  0  0
 54 55  1  0  0  0  0
 45 56  1  0  0  0  0
 55 56  2  0  0  0  0
 56 57  1  0  0  0  0
 54 58  1  0  0  0  0
 57 58  2  0  0  0  0
 49 59  1  0  0  0  0
 59 60  1  0  0  0  0
 60 61  2  0  0  0  0
 61 62  1  0  0  0  0
 62 63  2  0  0  0  0
 59 64  2  0  0  0  0
 63 64  1  0  0  0  0
 64 65  1  0  0  0  0
 62 66  1  0  0  0  0
 65 67  1  0  0  0  0
 66 68  1  0  0  0  0
 66 69  2  0  0  0  0
 65 70  2  0  0  0  0
M  END
$$$$
