9EPZ
  PyMOL3.1          3D                             0

 72 80  0  0  0  0  0  0  0  0999 V2000
    4.7390  -35.1130   -4.2870 Cl  0  0  0  0  0  0  0  0  0  0  0  0
    4.5010  -36.1220   -2.8940 C   0  0  0  0  0  0  0  0  0  0  0  0
    3.8290  -37.3140   -3.0900 C   0  0  0  0  0  0  0  0  0  0  0  0
    3.7170  -38.2350   -2.0600 C   0  0  0  0  0  0  0  0  0  0  0  0
    3.1980  -39.6190   -2.3380 C   0  0  0  0  0  0  0  0  0  0  0  0
    1.8660  -39.8610   -1.7080 N   0  3  0  0  0  0  0  0  0  0  0  0
    1.6720  -41.2610   -1.2570 C   0  0  0  0  0  0  0  0  0  0  0  0
    0.7380  -41.9980   -2.1920 C   0  0  0  0  0  0  0  0  0  0  0  0
   -0.2820  -42.7430   -1.3680 C   0  0  0  0  0  0  0  0  0  0  0  0
   -1.6650  -42.6960   -2.0000 C   0  0  0  0  0  0  0  0  0  0  0  0
   -2.6550  -43.3420   -1.0480 C   0  0  0  0  0  0  0  0  0  0  0  0
   -2.2390  -44.7370   -0.8120 N   0  0  0  0  0  0  0  0  0  0  0  0
   -3.3950  -45.7670   -0.2860 S   0  0  0  0  0  0  0  0  0  0  0  0
   -3.9770  -45.1340    1.2580 C   0  0  0  0  0  0  0  0  0  0  0  0
   -3.3410  -45.5180    2.4360 C   0  0  0  0  0  0  0  0  0  0  0  0
   -3.8140  -44.9970    3.6300 C   0  0  0  0  0  0  0  0  0  0  0  0
   -3.2830  -45.3260    5.2480 S   0  0  0  0  0  0  0  0  0  0  0  0
   -4.5450  -44.2720    5.8490 C   0  0  0  0  0  0  0  0  0  0  0  0
   -4.7890  -44.1640    7.3080 C   0  0  0  0  0  0  0  0  0  0  0  0
   -5.2940  -43.7170    4.9510 N   0  0  0  0  0  0  0  0  0  0  0  0
   -4.8980  -44.1140    3.6690 C   0  0  0  0  0  0  0  0  0  0  0  0
   -5.5150  -43.7420    2.4800 C   0  0  0  0  0  0  0  0  0  0  0  0
   -5.0580  -44.2520    1.2740 C   0  0  0  0  0  0  0  0  0  0  0  0
   -2.7560  -47.0240   -0.0380 O   0  0  0  0  0  0  0  0  0  0  0  0
   -4.4630  -45.6890   -1.2310 O   0  0  0  0  0  0  0  0  0  0  0  0
   -0.8960  -44.8250   -0.2040 C   0  0  0  0  0  0  0  0  0  0  0  0
    0.1250  -44.1940   -1.1480 C   0  0  0  0  0  0  0  0  0  0  0  0
    4.2730  -37.9180   -0.8270 C   0  0  0  0  0  0  0  0  0  0  0  0
    4.9440  -36.7210   -0.6220 C   0  0  0  0  0  0  0  0  0  0  0  0
    5.0720  -35.7910   -1.6520 C   0  0  0  0  0  0  0  0  0  0  0  0
    5.8130  -34.5270   -1.3720 C   0  0  0  0  0  0  0  0  0  0  0  0
    5.3630  -33.2980   -1.8670 C   0  0  0  0  0  0  0  0  0  0  0  0
    6.0580  -32.1310   -1.6010 C   0  0  0  0  0  0  0  0  0  0  0  0
    7.2090  -32.1640   -0.8420 C   0  0  0  0  0  0  0  0  0  0  0  0
    7.6700  -33.3680   -0.3450 C   0  0  0  0  0  0  0  0  0  0  0  0
    6.9810  -34.5410   -0.6060 C   0  0  0  0  0  0  0  0  0  0  0  0
   36.8520   -4.1090    2.8930 Cl  0  0  0  0  0  0  0  0  0  0  0  0
   37.6720   -3.6720    1.4230 C   0  0  0  0  0  0  0  0  0  0  0  0
   38.7610   -2.8410    1.5670 C   0  0  0  0  0  0  0  0  0  0  0  0
   39.5560   -2.5360    0.4780 C   0  0  0  0  0  0  0  0  0  0  0  0
   40.7740   -1.6750    0.6660 C   0  0  0  0  0  0  0  0  0  0  0  0
   40.9710   -0.6720   -0.4240 N   0  3  0  0  0  0  0  0  0  0  0  0
   42.3980   -0.5780   -0.8280 C   0  0  0  0  0  0  0  0  0  0  0  0
   43.1960    0.1560    0.2330 C   0  0  0  0  0  0  0  0  0  0  0  0
   43.9930    1.2090   -0.4950 C   0  0  0  0  0  0  0  0  0  0  0  0
   43.9550    2.5670    0.1740 C   0  0  0  0  0  0  0  0  0  0  0  0
   44.5570    3.5580   -0.8080 C   0  0  0  0  0  0  0  0  0  0  0  0
   45.9330    3.1440   -1.1500 N   0  0  0  0  0  0  0  0  0  0  0  0
   46.9440    4.2780   -1.7580 S   0  0  0  0  0  0  0  0  0  0  0  0
   46.2050    4.8890   -3.2290 C   0  0  0  0  0  0  0  0  0  0  0  0
   46.5220    4.2840   -4.4400 C   0  0  0  0  0  0  0  0  0  0  0  0
   45.9390    4.7850   -5.5900 C   0  0  0  0  0  0  0  0  0  0  0  0
   46.1640    4.2810   -7.2350 S   0  0  0  0  0  0  0  0  0  0  0  0
   45.0840    5.5560   -7.7450 C   0  0  0  0  0  0  0  0  0  0  0  0
   44.9340    5.8630   -9.1900 C   0  0  0  0  0  0  0  0  0  0  0  0
   44.5860    6.2900   -6.8010 N   0  0  0  0  0  0  0  0  0  0  0  0
   45.0600    5.8720   -5.5530 C   0  0  0  0  0  0  0  0  0  0  0  0
   44.7550    6.4600   -4.3240 C   0  0  0  0  0  0  0  0  0  0  0  0
   45.3280    5.9690   -3.1600 C   0  0  0  0  0  0  0  0  0  0  0  0
   48.1500    3.5990   -2.1220 O   0  0  0  0  0  0  0  0  0  0  0  0
   46.9830    5.3460   -0.8060 O   0  0  0  0  0  0  0  0  0  0  0  0
   45.9980    1.7840   -1.7270 C   0  0  0  0  0  0  0  0  0  0  0  0
   45.4390    0.7950   -0.7200 C   0  0  0  0  0  0  0  0  0  0  0  0
   39.2240   -3.0770   -0.7580 C   0  0  0  0  0  0  0  0  0  0  0  0
   38.1270   -3.9070   -0.9140 C   0  0  0  0  0  0  0  0  0  0  0  0
   37.3190   -4.2190    0.1720 C   0  0  0  0  0  0  0  0  0  0  0  0
   36.0970   -5.0270   -0.0890 C   0  0  0  0  0  0  0  0  0  0  0  0
   36.1920   -6.2920   -0.6750 C   0  0  0  0  0  0  0  0  0  0  0  0
   35.0520   -7.0310   -0.9500 C   0  0  0  0  0  0  0  0  0  0  0  0
   33.8000   -6.5240   -0.6450 C   0  0  0  0  0  0  0  0  0  0  0  0
   33.6890   -5.2750   -0.0650 C   0  0  0  0  0  0  0  0  0  0  0  0
   34.8250   -4.5290    0.2120 C   0  0  0  0  0  0  0  0  0  0  0  0
  1  2  1  0  0  0  0
  2  3  2  0  0  0  0
  3  4  1  0  0  0  0
  4  5  1  0  0  0  0
  5  6  1  0  0  0  0
  6  7  1  0  0  0  0
  7  8  1  0  0  0  0
  8  9  1  0  0  0  0
  9 10  1  0  0  0  0
 10 11  1  0  0  0  0
 11 12  1  0  0  0  0
 12 13  1  0  0  0  0
 13 14  1  0  0  0  0
 14 15  1  0  0  0  0
 15 16  2  0  0  0  0
 16 17  1  0  0  0  0
 17 18  1  0  0  0  0
 18 19  1  0  0  0  0
 18 20  2  0  0  0  0
 16 21  1  0  0  0  0
 20 21  1  0  0  0  0
 21 22  2  0  0  0  0
 14 23  2  0  0  0  0
 22 23  1  0  0  0  0
 13 24  2  0  0  0  0
 13 25  2  0  0  0  0
 12 26  1  0  0  0  0
  9 27  1  0  0  0  0
 26 27  1  0  0  0  0
  4 28  2  0  0  0  0
 28 29  1  0  0  0  0
  2 30  1  0  0  0  0
 29 30  2  0  0  0  0
 30 31  1  0  0  0  0
 31 32  1  0  0  0  0
 32 33  2  0  0  0  0
 33 34  1  0  0  0  0
 34 35  2  0  0  0  0
 31 36  2  0  0  0  0
 35 36  1  0  0  0  0
 37 38  1  0  0  0  0
 38 39  2  0  0  0  0
 39 40  1  0  0  0  0
 40 41  1  0  0  0  0
 41 42  1  0  0  0  0
 42 43  1  0  0  0  0
 43 44  1  0  0  0  0
 44 45  1  0  0  0  0
 45 46  1  0  0  0  0
 46 47  1  0  0  0  0
 47 48  1  0  0  0  0
 48 49  1  0  0  0  0
 49 50  1  0  0  0  0
 50 51  1  0  0  0  0
 51 52  2  0  0  0  0
 52 53  1  0  0  0  0
 53 54  1  0  0  0  0
 54 55  1  0  0  0  0
 54 56  2  0  0  0  0
 52 57  1  0  0  0  0
 56 57  1  0  0  0  0
 57 58  2  0  0  0  0
 50 59  2  0  0  0  0
 58 59  1  0  0  0  0
 49 60  2  0  0  0  0
 49 61  2  0  0  0  0
 48 62  1  0  0  0  0
 45 63  1  0  0  0  0
 62 63  1  0  0  0  0
 40 64  2  0  0  0  0
 64 65  1  0  0  0  0
 38 66  1  0  0  0  0
 65 66  2  0  0  0  0
 66 67  1  0  0  0  0
 67 68  1  0  0  0  0
 68 69  2  0  0  0  0
 69 70  1  0  0  0  0
 70 71  2  0  0  0  0
 67 72  2  0  0  0  0
 71 72  1  0  0  0  0
M  END
$$$$
