8I5X
  PyMOL3.1          3D                             0

 26 30  0  0  0  0  0  0  0  0999 V2000
  142.4720  133.4190  136.7220 C   0  0  0  0  0  0  0  0  0  0  0  0
  144.2340  134.1900  135.8220 N   0  0  0  0  0  0  0  0  0  0  0  0
  147.2720  134.6210  134.1470 O   0  0  0  0  0  0  0  0  0  0  0  0
  143.0420  134.5150  136.2570 C   0  0  0  0  0  0  0  0  0  0  0  0
  145.4010  134.8830  132.9500 O   0  0  0  0  0  0  0  0  0  0  0  0
  143.5060  132.2950  136.5410 C   0  0  0  0  0  0  0  0  0  0  0  0
  141.3790  136.0270  137.2770 N   0  0  0  0  0  0  0  0  0  0  0  0
  143.5860  130.9340  136.8060 C   0  0  0  0  0  0  0  0  0  0  0  0
  143.5620  136.9760  136.1510 C   0  0  0  0  0  0  0  0  0  0  0  0
  144.7330  130.2200  136.4870 C   0  0  0  0  0  0  0  0  0  0  0  0
  142.4890  135.8710  136.1750 C   0  0  0  0  0  0  0  0  0  0  0  0
  143.8220  137.6050  137.5000 C   0  0  0  0  0  0  0  0  0  0  0  0
  141.9080  136.5510  138.5200 C   0  0  0  0  0  0  0  0  0  0  0  0
  142.5710  137.8860  138.2570 C   0  0  0  0  0  0  0  0  0  0  0  0
  143.0800  138.0750  135.1960 C   0  0  0  0  0  0  0  0  0  0  0  0
  140.4300  134.8080  137.0420 C   0  0  0  0  0  0  0  0  0  0  0  0
  144.9230  136.4250  135.6360 C   0  0  0  0  0  0  0  0  0  0  0  0
  141.1820  133.5140  137.2370 C   0  0  0  0  0  0  0  0  0  0  0  0
  145.0700  135.1890  135.2610 C   0  0  0  0  0  0  0  0  0  0  0  0
  144.2660  138.8830  134.6690 C   0  0  0  0  0  0  0  0  0  0  0  0
  145.9090  134.8960  134.0200 C   0  0  0  0  0  0  0  0  0  0  0  0
  144.6130  132.9340  135.9420 C   0  0  0  0  0  0  0  0  0  0  0  0
  145.7520  132.2100  135.6310 C   0  0  0  0  0  0  0  0  0  0  0  0
  145.8090  130.8580  135.9010 C   0  0  0  0  0  0  0  0  0  0  0  0
  147.7980  133.9760  133.0240 C   0  0  0  0  0  0  0  0  0  0  0  0
  148.6250  132.7710  133.4660 C   0  0  0  0  0  0  0  0  0  0  0  0
  1  4  2  0  0  0  0
  2  4  1  0  0  0  0
  1  6  1  0  0  0  0
  6  8  2  0  0  0  0
  8 10  1  0  0  0  0
  4 11  1  0  0  0  0
  7 11  1  0  0  0  0
  9 11  1  0  0  0  0
  9 12  1  0  0  0  0
  7 13  1  0  0  0  0
 12 14  1  0  0  0  0
 13 14  1  0  0  0  0
  9 15  1  0  0  0  0
  7 16  1  0  0  0  0
  9 17  1  0  0  0  0
  1 18  1  0  0  0  0
 16 18  1  0  0  0  0
  2 19  1  0  0  0  0
 17 19  2  0  0  0  0
 15 20  1  0  0  0  0
  3 21  1  0  0  0  0
  5 21  2  0  0  0  0
 19 21  1  0  0  0  0
  2 22  1  0  0  0  0
  6 22  1  0  0  0  0
 22 23  2  0  0  0  0
 10 24  2  0  0  0  0
 23 24  1  0  0  0  0
  3 25  1  0  0  0  0
 25 26  1  0  0  0  0
M  END
$$$$
