8G93
  PyMOL3.1          3D                             0

 50 52  0  0  0  0  0  0  0  0999 V2000
   10.6060   29.1030   62.5740 C   0  0  0  0  0  0  0  0  0  0  0  0
   10.4010   29.9530   63.6670 C   0  0  0  0  0  0  0  0  0  0  0  0
    9.6510   31.1200   63.5150 C   0  0  0  0  0  0  0  0  0  0  0  0
    9.1060   31.4110   62.2670 C   0  0  0  0  0  0  0  0  0  0  0  0
    9.3070   30.5720   61.1730 C   0  0  0  0  0  0  0  0  0  0  0  0
   10.0650   29.4140   61.3290 C   0  0  0  0  0  0  0  0  0  0  0  0
    9.3740   32.0380   64.4880 O   0  0  0  0  0  0  0  0  0  0  0  0
   10.0990   31.9210   65.7080 C   0  0  0  0  0  0  0  0  0  0  0  0
    9.7270   33.1180   66.5970 C   0  0  0  0  0  0  0  0  0  0  0  0
    8.2270   33.0910   66.9650 C   0  0  0  0  0  0  0  0  0  0  0  0
    7.8520   34.1820   67.9670 C   0  0  0  0  0  0  0  0  0  0  0  0
    8.7490   34.1860   69.2200 C   0  0  0  0  0  0  0  0  0  0  0  0
   10.2230   34.2730   68.7830 C   0  0  0  0  0  0  0  0  0  0  0  0
   10.6240   33.1470   67.8390 C   0  0  0  0  0  0  0  0  0  0  0  0
    8.4590   35.3770   69.9660 O   0  0  0  0  0  0  0  0  0  0  0  0
    8.4310   32.9720   70.1200 C   0  0  0  0  0  0  0  0  0  0  0  0
    9.3900   32.8140   71.2050 N   0  0  0  0  0  0  0  0  0  0  0  0
   10.1510   31.6670   71.3690 C   0  0  0  0  0  0  0  0  0  0  0  0
   10.0290   30.6430   70.7000 O   0  0  0  0  0  0  0  0  0  0  0  0
   11.1800   31.7090   72.4370 C   0  0  0  0  0  0  0  0  0  0  0  0
   11.6570   30.5050   72.9530 C   0  0  0  0  0  0  0  0  0  0  0  0
   12.6610   30.5180   73.9290 C   0  0  0  0  0  0  0  0  0  0  0  0
   13.2450   31.6960   74.4380 C   0  0  0  0  0  0  0  0  0  0  0  0
   12.7260   32.8870   73.8820 C   0  0  0  0  0  0  0  0  0  0  0  0
   11.7210   32.9050   72.9050 C   0  0  0  0  0  0  0  0  0  0  0  0
   14.1670   31.6890   75.3210 O   0  0  0  0  0  0  0  0  0  0  0  0
   13.0880   29.3290   74.3930 F   0  0  0  0  0  0  0  0  0  0  0  0
    8.3800   32.5300   62.1150 F   0  0  0  0  0  0  0  0  0  0  0  0
    9.9000   34.0390   66.0220 H   0  0  0  0  0  0  0  0  0  0  0  0
   11.1920   28.1970   62.6980 H   0  0  0  0  0  0  0  0  0  0  0  0
   10.8400   29.6740   64.6200 H   0  0  0  0  0  0  0  0  0  0  0  0
    8.8790   30.8200   60.2070 H   0  0  0  0  0  0  0  0  0  0  0  0
   10.2290   28.7520   60.4840 H   0  0  0  0  0  0  0  0  0  0  0  0
    9.8350   30.9860   66.2180 H   0  0  0  0  0  0  0  0  0  0  0  0
   11.1760   31.9370   65.5050 H   0  0  0  0  0  0  0  0  0  0  0  0
    7.6210   33.2220   66.0610 H   0  0  0  0  0  0  0  0  0  0  0  0
    7.9620   32.1080   67.3710 H   0  0  0  0  0  0  0  0  0  0  0  0
    7.9190   35.1610   67.4730 H   0  0  0  0  0  0  0  0  0  0  0  0
    6.7980   34.0760   68.2550 H   0  0  0  0  0  0  0  0  0  0  0  0
   10.3940   35.2390   68.2880 H   0  0  0  0  0  0  0  0  0  0  0  0
   10.8890   34.2880   69.6550 H   0  0  0  0  0  0  0  0  0  0  0  0
   11.6690   33.2890   67.5360 H   0  0  0  0  0  0  0  0  0  0  0  0
   10.5780   32.1850   68.3600 H   0  0  0  0  0  0  0  0  0  0  0  0
    7.5120   35.3670   70.1870 H   0  0  0  0  0  0  0  0  0  0  0  0
    8.3970   32.0430   69.5450 H   0  0  0  0  0  0  0  0  0  0  0  0
    7.4550   33.1010   70.6010 H   0  0  0  0  0  0  0  0  0  0  0  0
    9.4670   33.5820   71.8620 H   0  0  0  0  0  0  0  0  0  0  0  0
   11.2680   29.5480   72.6170 H   0  0  0  0  0  0  0  0  0  0  0  0
   13.1230   33.8490   74.2100 H   0  0  0  0  0  0  0  0  0  0  0  0
   11.4150   33.8670   72.5080 H   0  0  0  0  0  0  0  0  0  0  0  0
  1  2  1  0  0  0  0
  2  3  2  0  0  0  0
  3  4  1  0  0  0  0
  4  5  2  0  0  0  0
  1  6  2  0  0  0  0
  5  6  1  0  0  0  0
  3  7  1  0  0  0  0
  7  8  1  0  0  0  0
  8  9  1  0  0  0  0
  9 10  1  0  0  0  0
 10 11  1  0  0  0  0
 11 12  1  0  0  0  0
 12 13  1  0  0  0  0
  9 14  1  0  0  0  0
 13 14  1  0  0  0  0
 12 15  1  0  0  0  0
 12 16  1  0  0  0  0
 16 17  1  0  0  0  0
 17 18  1  0  0  0  0
 18 19  2  0  0  0  0
 18 20  1  0  0  0  0
 20 21  2  0  0  0  0
 21 22  1  0  0  0  0
 22 23  2  0  0  0  0
 23 24  1  0  0  0  0
 20 25  1  0  0  0  0
 24 25  2  0  0  0  0
 23 26  1  0  0  0  0
 22 27  1  0  0  0  0
  4 28  1  0  0  0  0
  9 29  1  0  0  0  0
  1 30  1  0  0  0  0
  2 31  1  0  0  0  0
  5 32  1  0  0  0  0
  6 33  1  0  0  0  0
  8 34  1  0  0  0  0
  8 35  1  0  0  0  0
 10 36  1  0  0  0  0
 10 37  1  0  0  0  0
 11 38  1  0  0  0  0
 11 39  1  0  0  0  0
 13 40  1  0  0  0  0
 13 41  1  0  0  0  0
 14 42  1  0  0  0  0
 14 43  1  0  0  0  0
 15 44  1  0  0  0  0
 16 45  1  0  0  0  0
 16 46  1  0  0  0  0
 17 47  1  0  0  0  0
 21 48  1  0  0  0  0
 24 49  1  0  0  0  0
 25 50  1  0  0  0  0
M  END
$$$$
