8G93
  PyMOL3.1          3D                             0

 50 52  0  0  0  0  0  0  0  0999 V2000
   42.1980   21.2290   81.6360 C   0  0  0  0  0  0  0  0  0  0  0  0
   42.7560   22.2290   80.8330 C   0  0  0  0  0  0  0  0  0  0  0  0
   43.9410   22.8610   81.2200 C   0  0  0  0  0  0  0  0  0  0  0  0
   44.5520   22.4680   82.4140 C   0  0  0  0  0  0  0  0  0  0  0  0
   43.9940   21.4810   83.2230 C   0  0  0  0  0  0  0  0  0  0  0  0
   42.8130   20.8600   82.8310 C   0  0  0  0  0  0  0  0  0  0  0  0
   44.5850   23.8520   80.5290 O   0  0  0  0  0  0  0  0  0  0  0  0
   43.9320   24.3570   79.3660 C   0  0  0  0  0  0  0  0  0  0  0  0
   44.8000   25.4620   78.7430 C   0  0  0  0  0  0  0  0  0  0  0  0
   46.1720   24.9100   78.3120 C   0  0  0  0  0  0  0  0  0  0  0  0
   46.9960   25.9240   77.5200 C   0  0  0  0  0  0  0  0  0  0  0  0
   46.2290   26.5170   76.3240 C   0  0  0  0  0  0  0  0  0  0  0  0
   44.9090   27.1220   76.8330 C   0  0  0  0  0  0  0  0  0  0  0  0
   44.0470   26.1100   77.5760 C   0  0  0  0  0  0  0  0  0  0  0  0
   47.0250   27.5670   75.7600 O   0  0  0  0  0  0  0  0  0  0  0  0
   46.0520   25.4600   75.2130 C   0  0  0  0  0  0  0  0  0  0  0  0
   45.1980   25.9320   74.1330 N   0  0  0  0  0  0  0  0  0  0  0  0
   44.1010   25.2170   73.6820 C   0  0  0  0  0  0  0  0  0  0  0  0
   43.8030   24.0840   74.0520 O   0  0  0  0  0  0  0  0  0  0  0  0
   43.2250   25.9000   72.6990 C   0  0  0  0  0  0  0  0  0  0  0  0
   42.3310   25.1240   71.9680 C   0  0  0  0  0  0  0  0  0  0  0  0
   41.4210   25.7400   71.1060 C   0  0  0  0  0  0  0  0  0  0  0  0
   41.3430   27.1350   70.9090 C   0  0  0  0  0  0  0  0  0  0  0  0
   42.2870   27.8780   71.6520 C   0  0  0  0  0  0  0  0  0  0  0  0
   43.2010   27.2860   72.5370 C   0  0  0  0  0  0  0  0  0  0  0  0
   40.4820   27.6830   70.1430 O   0  0  0  0  0  0  0  0  0  0  0  0
   40.5570   24.9380   70.4630 F   0  0  0  0  0  0  0  0  0  0  0  0
   45.7010   23.0470   82.7970 F   0  0  0  0  0  0  0  0  0  0  0  0
   44.9850   26.2280   79.5090 H   0  0  0  0  0  0  0  0  0  0  0  0
   41.2770   20.7410   81.3290 H   0  0  0  0  0  0  0  0  0  0  0  0
   42.2390   22.4880   79.9140 H   0  0  0  0  0  0  0  0  0  0  0  0
   44.4820   21.1940   84.1490 H   0  0  0  0  0  0  0  0  0  0  0  0
   42.3720   20.0860   83.4530 H   0  0  0  0  0  0  0  0  0  0  0  0
   42.9570   24.7730   79.6440 H   0  0  0  0  0  0  0  0  0  0  0  0
   43.7900   23.5520   78.6340 H   0  0  0  0  0  0  0  0  0  0  0  0
   46.7450   24.6110   79.1990 H   0  0  0  0  0  0  0  0  0  0  0  0
   46.0380   23.9990   77.7180 H   0  0  0  0  0  0  0  0  0  0  0  0
   47.9290   25.4610   77.1780 H   0  0  0  0  0  0  0  0  0  0  0  0
   47.3070   26.7360   78.1930 H   0  0  0  0  0  0  0  0  0  0  0  0
   45.1300   27.9650   77.5020 H   0  0  0  0  0  0  0  0  0  0  0  0
   44.3410   27.5660   76.0060 H   0  0  0  0  0  0  0  0  0  0  0  0
   43.1500   26.6130   77.9550 H   0  0  0  0  0  0  0  0  0  0  0  0
   43.6990   25.3400   76.8780 H   0  0  0  0  0  0  0  0  0  0  0  0
   47.1640   28.2430   76.4450 H   0  0  0  0  0  0  0  0  0  0  0  0
   47.0200   25.2340   74.7520 H   0  0  0  0  0  0  0  0  0  0  0  0
   45.6420   24.5260   75.6040 H   0  0  0  0  0  0  0  0  0  0  0  0
   45.4560   26.8120   73.7000 H   0  0  0  0  0  0  0  0  0  0  0  0
   42.3040   24.0420   72.0630 H   0  0  0  0  0  0  0  0  0  0  0  0
   42.3030   28.9660   71.5690 H   0  0  0  0  0  0  0  0  0  0  0  0
   43.8540   27.9440   73.1030 H   0  0  0  0  0  0  0  0  0  0  0  0
  1  2  1  0  0  0  0
  2  3  2  0  0  0  0
  3  4  1  0  0  0  0
  4  5  2  0  0  0  0
  1  6  2  0  0  0  0
  5  6  1  0  0  0  0
  3  7  1  0  0  0  0
  7  8  1  0  0  0  0
  8  9  1  0  0  0  0
  9 10  1  0  0  0  0
 10 11  1  0  0  0  0
 11 12  1  0  0  0  0
 12 13  1  0  0  0  0
  9 14  1  0  0  0  0
 13 14  1  0  0  0  0
 12 15  1  0  0  0  0
 12 16  1  0  0  0  0
 16 17  1  0  0  0  0
 17 18  1  0  0  0  0
 18 19  2  0  0  0  0
 18 20  1  0  0  0  0
 20 21  2  0  0  0  0
 21 22  1  0  0  0  0
 22 23  2  0  0  0  0
 23 24  1  0  0  0  0
 20 25  1  0  0  0  0
 24 25  2  0  0  0  0
 23 26  1  0  0  0  0
 22 27  1  0  0  0  0
  4 28  1  0  0  0  0
  9 29  1  0  0  0  0
  1 30  1  0  0  0  0
  2 31  1  0  0  0  0
  5 32  1  0  0  0  0
  6 33  1  0  0  0  0
  8 34  1  0  0  0  0
  8 35  1  0  0  0  0
 10 36  1  0  0  0  0
 10 37  1  0  0  0  0
 11 38  1  0  0  0  0
 11 39  1  0  0  0  0
 13 40  1  0  0  0  0
 13 41  1  0  0  0  0
 14 42  1  0  0  0  0
 14 43  1  0  0  0  0
 15 44  1  0  0  0  0
 16 45  1  0  0  0  0
 16 46  1  0  0  0  0
 17 47  1  0  0  0  0
 21 48  1  0  0  0  0
 24 49  1  0  0  0  0
 25 50  1  0  0  0  0
M  END
$$$$
