8UTB
  PyMOL3.1          3D                             0

160165  0  0  0  0  0  0  0  0999 V2000
  146.8960  122.8980  138.6280 N   0  0  0  0  0  0  0  0  0  0  0  0
  146.4940  123.1710  142.8030 C   0  0  0  0  0  0  0  0  0  0  0  0
  147.5050  120.7090  138.2750 O   0  0  0  0  0  0  0  0  0  0  0  0
  146.8970  117.5050  134.2120 Cl  0  0  0  0  0  0  0  0  0  0  0  0
  147.3370  125.5860  139.7580 Cl  0  0  0  0  0  0  0  0  0  0  0  0
  146.8100  124.2850  142.0510 C   0  0  0  0  0  0  0  0  0  0  0  0
  147.1630  122.1340  136.5060 N   0  0  0  0  0  0  0  0  0  0  0  0
  148.0090  123.2300  134.2440 O   0  0  0  0  0  0  0  0  0  0  0  0
  146.9620  124.1690  140.6840 C   0  0  0  0  0  0  0  0  0  0  0  0
  146.8140  122.9400  140.0400 C   0  0  0  0  0  0  0  0  0  0  0  0
  146.5070  121.8190  140.8140 C   0  0  0  0  0  0  0  0  0  0  0  0
  146.3300  121.9330  142.1920 C   0  0  0  0  0  0  0  0  0  0  0  0
  145.9370  120.7360  143.0010 C   0  0  0  0  0  0  0  0  0  0  0  0
  147.2060  121.8190  137.8390 C   0  0  0  0  0  0  0  0  0  0  0  0
  147.4220  121.2720  135.4140 C   0  0  0  0  0  0  0  0  0  0  0  0
  147.9750  121.8730  134.2770 C   0  0  0  0  0  0  0  0  0  0  0  0
  148.1630  121.1210  133.1250 C   0  0  0  0  0  0  0  0  0  0  0  0
  147.8230  119.7810  133.1010 C   0  0  0  0  0  0  0  0  0  0  0  0
  147.2990  119.1990  134.2350 C   0  0  0  0  0  0  0  0  0  0  0  0
  147.0900  119.9200  135.3940 C   0  0  0  0  0  0  0  0  0  0  0  0
  146.6620  120.6010  144.1090 F   0  0  0  0  0  0  0  0  0  0  0  0
  144.6700  120.7860  143.3970 F   0  0  0  0  0  0  0  0  0  0  0  0
  146.0620  119.5940  142.3250 F   0  0  0  0  0  0  0  0  0  0  0  0
  146.3740  123.2780  143.8800 H   0  0  0  0  0  0  0  0  0  0  0  0
  146.9410  125.2580  142.5250 H   0  0  0  0  0  0  0  0  0  0  0  0
  146.4050  120.8440  140.3390 H   0  0  0  0  0  0  0  0  0  0  0  0
  146.6910  123.7950  138.2000 H   0  0  0  0  0  0  0  0  0  0  0  0
  146.9230  123.0730  136.2100 H   0  0  0  0  0  0  0  0  0  0  0  0
  148.5800  121.5780  132.2290 H   0  0  0  0  0  0  0  0  0  0  0  0
  147.9660  119.1880  132.1980 H   0  0  0  0  0  0  0  0  0  0  0  0
  146.6720  119.4300  136.2720 H   0  0  0  0  0  0  0  0  0  0  0  0
  147.1150  123.5450  133.9460 H   0  0  0  0  0  0  0  0  0  0  0  0
  126.3630  125.0590  138.6290 N   0  0  0  0  0  0  0  0  0  0  0  0
  126.4980  125.5260  142.8040 C   0  0  0  0  0  0  0  0  0  0  0  0
  124.4700  123.8040  138.2760 O   0  0  0  0  0  0  0  0  0  0  0  0
  121.2340  123.3930  134.2130 Cl  0  0  0  0  0  0  0  0  0  0  0  0
  129.0560  125.4690  139.7590 Cl  0  0  0  0  0  0  0  0  0  0  0  0
  127.6560  125.5690  142.0520 C   0  0  0  0  0  0  0  0  0  0  0  0
  125.7190  124.5690  136.5070 N   0  0  0  0  0  0  0  0  0  0  0  0
  127.0230  124.1030  134.2450 O   0  0  0  0  0  0  0  0  0  0  0  0
  127.5920  125.3880  140.6850 C   0  0  0  0  0  0  0  0  0  0  0  0
  126.3780  125.1500  140.0410 C   0  0  0  0  0  0  0  0  0  0  0  0
  125.2170  125.0960  140.8150 C   0  0  0  0  0  0  0  0  0  0  0  0
  125.2710  125.3000  142.1930 C   0  0  0  0  0  0  0  0  0  0  0  0
  124.0110  125.3040  143.0020 C   0  0  0  0  0  0  0  0  0  0  0  0
  125.4330  124.4310  137.8400 C   0  0  0  0  0  0  0  0  0  0  0  0
  124.9800  124.0560  135.4150 C   0  0  0  0  0  0  0  0  0  0  0  0
  125.7220  123.7170  134.2780 C   0  0  0  0  0  0  0  0  0  0  0  0
  125.0640  123.3050  133.1260 C   0  0  0  0  0  0  0  0  0  0  0  0
  123.6850  123.2140  133.1020 C   0  0  0  0  0  0  0  0  0  0  0  0
  122.9690  123.5330  134.2360 C   0  0  0  0  0  0  0  0  0  0  0  0
  123.5900  123.9550  135.3950 C   0  0  0  0  0  0  0  0  0  0  0  0
  124.1060  124.5730  144.1100 F   0  0  0  0  0  0  0  0  0  0  0  0
  123.6670  126.5250  143.3970 F   0  0  0  0  0  0  0  0  0  0  0  0
  122.9630  124.8320  142.3260 F   0  0  0  0  0  0  0  0  0  0  0  0
  126.5640  125.6730  143.8810 H   0  0  0  0  0  0  0  0  0  0  0  0
  128.6220  125.7450  142.5260 H   0  0  0  0  0  0  0  0  0  0  0  0
  124.2580  124.8920  140.3400 H   0  0  0  0  0  0  0  0  0  0  0  0
  127.1540  125.5310  138.2010 H   0  0  0  0  0  0  0  0  0  0  0  0
  126.5380  125.0870  136.2110 H   0  0  0  0  0  0  0  0  0  0  0  0
  125.6280  123.0500  132.2300 H   0  0  0  0  0  0  0  0  0  0  0  0
  123.1650  122.8960  132.1990 H   0  0  0  0  0  0  0  0  0  0  0  0
  122.9960  124.2010  136.2730 H   0  0  0  0  0  0  0  0  0  0  0  0
  127.0470  125.0500  133.9470 H   0  0  0  0  0  0  0  0  0  0  0  0
  122.0620  145.2620  138.6270 N   0  0  0  0  0  0  0  0  0  0  0  0
  122.5480  145.2790  142.8020 C   0  0  0  0  0  0  0  0  0  0  0  0
  120.2830  146.6740  138.2740 O   0  0  0  0  0  0  0  0  0  0  0  0
  118.8910  149.6240  134.2110 Cl  0  0  0  0  0  0  0  0  0  0  0  0
  123.2850  142.8280  139.7580 Cl  0  0  0  0  0  0  0  0  0  0  0  0
  122.9470  144.1900  142.0500 C   0  0  0  0  0  0  0  0  0  0  0  0
  121.3970  145.7230  136.5050 N   0  0  0  0  0  0  0  0  0  0  0  0
  121.3570  144.3390  134.2440 O   0  0  0  0  0  0  0  0  0  0  0  0
  122.7550  144.1950  140.6830 C   0  0  0  0  0  0  0  0  0  0  0  0
  122.1530  145.2760  140.0390 C   0  0  0  0  0  0  0  0  0  0  0  0
  121.7420  146.3640  140.8130 C   0  0  0  0  0  0  0  0  0  0  0  0
  121.9540  146.3760  142.1910 C   0  0  0  0  0  0  0  0  0  0  0  0
  121.5680  147.5760  143.0000 C   0  0  0  0  0  0  0  0  0  0  0  0
  121.1770  145.9530  137.8380 C   0  0  0  0  0  0  0  0  0  0  0  0
  120.6810  146.2670  135.4130 C   0  0  0  0  0  0  0  0  0  0  0  0
  120.5870  145.4560  134.2760 C   0  0  0  0  0  0  0  0  0  0  0  0
  119.9930  145.9540  133.1240 C   0  0  0  0  0  0  0  0  0  0  0  0
  119.4790  147.2380  133.1000 C   0  0  0  0  0  0  0  0  0  0  0  0
  119.5610  148.0170  134.2340 C   0  0  0  0  0  0  0  0  0  0  0  0
  120.1550  147.5570  135.3930 C   0  0  0  0  0  0  0  0  0  0  0  0
  120.9020  147.2590  144.1080 F   0  0  0  0  0  0  0  0  0  0  0  0
  122.6220  148.2800  143.3950 F   0  0  0  0  0  0  0  0  0  0  0  0
  120.7950  148.4260  142.3240 F   0  0  0  0  0  0  0  0  0  0  0  0
  122.7080  145.2620  143.8790 H   0  0  0  0  0  0  0  0  0  0  0  0
  123.4130  143.3270  142.5250 H   0  0  0  0  0  0  0  0  0  0  0  0
  121.2520  147.2130  140.3380 H   0  0  0  0  0  0  0  0  0  0  0  0
  122.7550  144.6560  138.1990 H   0  0  0  0  0  0  0  0  0  0  0  0
  122.1430  145.1040  136.2090 H   0  0  0  0  0  0  0  0  0  0  0  0
  119.9240  145.3400  132.2290 H   0  0  0  0  0  0  0  0  0  0  0  0
  119.0160  147.6340  132.1970 H   0  0  0  0  0  0  0  0  0  0  0  0
  120.2050  148.1990  136.2710 H   0  0  0  0  0  0  0  0  0  0  0  0
  122.2640  144.6090  133.9450 H   0  0  0  0  0  0  0  0  0  0  0  0
  139.9390  155.5730  138.6320 N   0  0  0  0  0  0  0  0  0  0  0  0
  140.1030  155.1160  142.8070 C   0  0  0  0  0  0  0  0  0  0  0  0
  140.7340  157.7010  138.2790 O   0  0  0  0  0  0  0  0  0  0  0  0
  143.1120  159.9340  134.2160 Cl  0  0  0  0  0  0  0  0  0  0  0  0
  138.0000  153.6600  139.7620 Cl  0  0  0  0  0  0  0  0  0  0  0  0
  139.1910  154.4010  142.0550 C   0  0  0  0  0  0  0  0  0  0  0  0
  140.1730  156.3480  136.5100 N   0  0  0  0  0  0  0  0  0  0  0  0
  138.8440  155.9590  134.2480 O   0  0  0  0  0  0  0  0  0  0  0  0
  139.1370  154.5850  140.6880 C   0  0  0  0  0  0  0  0  0  0  0  0
  139.9800  155.4910  140.0440 C   0  0  0  0  0  0  0  0  0  0  0  0
  140.8880  156.2170  140.8180 C   0  0  0  0  0  0  0  0  0  0  0  0
  140.9640  156.0200  142.1960 C   0  0  0  0  0  0  0  0  0  0  0  0
  141.9860  156.7570  143.0050 C   0  0  0  0  0  0  0  0  0  0  0  0
  140.3230  156.6280  137.8430 C   0  0  0  0  0  0  0  0  0  0  0  0
  140.4700  157.1970  135.4180 C   0  0  0  0  0  0  0  0  0  0  0  0
  139.6700  157.0360  134.2810 C   0  0  0  0  0  0  0  0  0  0  0  0
  139.9610  157.7550  133.1290 C   0  0  0  0  0  0  0  0  0  0  0  0
  141.0240  158.6390  133.1050 C   0  0  0  0  0  0  0  0  0  0  0  0
  141.7900  158.8010  134.2390 C   0  0  0  0  0  0  0  0  0  0  0  0
  141.5350  158.0950  135.3980 C   0  0  0  0  0  0  0  0  0  0  0  0
  141.4790  157.2930  144.1130 F   0  0  0  0  0  0  0  0  0  0  0  0
  142.9810  155.9710  143.4010 F   0  0  0  0  0  0  0  0  0  0  0  0
  142.5570  157.7540  142.3290 F   0  0  0  0  0  0  0  0  0  0  0  0
  140.1360  154.9590  143.8840 H   0  0  0  0  0  0  0  0  0  0  0  0
  138.5130  153.6920  142.5290 H   0  0  0  0  0  0  0  0  0  0  0  0
  141.5440  156.9450  140.3430 H   0  0  0  0  0  0  0  0  0  0  0  0
  139.5760  154.7270  138.2040 H   0  0  0  0  0  0  0  0  0  0  0  0
  139.8140  155.4470  136.2140 H   0  0  0  0  0  0  0  0  0  0  0  0
  139.3550  157.6310  132.2330 H   0  0  0  0  0  0  0  0  0  0  0  0
  141.2580  159.2020  132.2020 H   0  0  0  0  0  0  0  0  0  0  0  0
  142.1610  158.2450  136.2760 H   0  0  0  0  0  0  0  0  0  0  0  0
  139.3810  155.1790  133.9500 H   0  0  0  0  0  0  0  0  0  0  0  0
  155.2930  141.7660  138.6250 N   0  0  0  0  0  0  0  0  0  0  0  0
  154.9100  141.4690  142.8000 C   0  0  0  0  0  0  0  0  0  0  0  0
  157.5620  141.6680  138.2710 O   0  0  0  0  0  0  0  0  0  0  0  0
  160.4200  140.0970  134.2080 Cl  0  0  0  0  0  0  0  0  0  0  0  0
  152.8740  143.0190  139.7560 Cl  0  0  0  0  0  0  0  0  0  0  0  0
  153.9480  142.1150  142.0480 C   0  0  0  0  0  0  0  0  0  0  0  0
  156.1020  141.7840  136.5030 N   0  0  0  0  0  0  0  0  0  0  0  0
  155.3210  142.9270  134.2410 O   0  0  0  0  0  0  0  0  0  0  0  0
  154.1060  142.2240  140.6810 C   0  0  0  0  0  0  0  0  0  0  0  0
  155.2280  141.7020  140.0370 C   0  0  0  0  0  0  0  0  0  0  0  0
  156.1990  141.0630  140.8110 C   0  0  0  0  0  0  0  0  0  0  0  0
  156.0350  140.9290  142.1890 C   0  0  0  0  0  0  0  0  0  0  0  0
  157.0520  140.1850  142.9970 C   0  0  0  0  0  0  0  0  0  0  0  0
  156.4150  141.7270  137.8360 C   0  0  0  0  0  0  0  0  0  0  0  0
  157.0010  141.7640  135.4110 C   0  0  0  0  0  0  0  0  0  0  0  0
  156.6000  142.4750  134.2740 C   0  0  0  0  0  0  0  0  0  0  0  0
  157.3740  142.4200  133.1220 C   0  0  0  0  0  0  0  0  0  0  0  0
  158.5430  141.6830  133.0970 C   0  0  0  0  0  0  0  0  0  0  0  0
  158.9340  141.0040  134.2310 C   0  0  0  0  0  0  0  0  0  0  0  0
  158.1840  141.0280  135.3900 C   0  0  0  0  0  0  0  0  0  0  0  0
  157.4060  140.8330  144.1050 F   0  0  0  0  0  0  0  0  0  0  0  0
  156.6130  138.9960  143.3930 F   0  0  0  0  0  0  0  0  0  0  0  0
  158.1770  139.9500  142.3210 F   0  0  0  0  0  0  0  0  0  0  0  0
  154.7710  141.3890  143.8770 H   0  0  0  0  0  0  0  0  0  0  0  0
  153.0640  142.5410  142.5220 H   0  0  0  0  0  0  0  0  0  0  0  0
  157.0940  140.6640  140.3350 H   0  0  0  0  0  0  0  0  0  0  0  0
  154.3760  141.8500  138.1970 H   0  0  0  0  0  0  0  0  0  0  0  0
  155.1340  141.8460  136.2070 H   0  0  0  0  0  0  0  0  0  0  0  0
  157.0680  142.9580  132.2260 H   0  0  0  0  0  0  0  0  0  0  0  0
  159.1510  141.6340  132.1940 H   0  0  0  0  0  0  0  0  0  0  0  0
  158.5200  140.4790  136.2680 H   0  0  0  0  0  0  0  0  0  0  0  0
  154.7450  142.1760  133.9430 H   0  0  0  0  0  0  0  0  0  0  0  0
  2  6  2  0  0  0  0
  5  9  1  0  0  0  0
  6  9  1  0  0  0  0
  1 10  1  0  0  0  0
  9 10  2  0  0  0  0
 10 11  1  0  0  0  0
  2 12  1  0  0  0  0
 11 12  2  0  0  0  0
 12 13  1  0  0  0  0
  1 14  1  0  0  0  0
  3 14  2  0  0  0  0
  7 14  1  0  0  0  0
  7 15  1  0  0  0  0
  8 16  1  0  0  0  0
 15 16  2  0  0  0  0
 16 17  1  0  0  0  0
 17 18  2  0  0  0  0
  4 19  1  0  0  0  0
 18 19  1  0  0  0  0
 15 20  1  0  0  0  0
 19 20  2  0  0  0  0
 13 21  1  0  0  0  0
 13 22  1  0  0  0  0
 13 23  1  0  0  0  0
  2 24  1  0  0  0  0
  6 25  1  0  0  0  0
 11 26  1  0  0  0  0
  1 27  1  0  0  0  0
  7 28  1  0  0  0  0
 17 29  1  0  0  0  0
 18 30  1  0  0  0  0
 20 31  1  0  0  0  0
  8 32  1  0  0  0  0
 34 38  2  0  0  0  0
 37 41  1  0  0  0  0
 38 41  1  0  0  0  0
 33 42  1  0  0  0  0
 41 42  2  0  0  0  0
 42 43  1  0  0  0  0
 34 44  1  0  0  0  0
 43 44  2  0  0  0  0
 44 45  1  0  0  0  0
 33 46  1  0  0  0  0
 35 46  2  0  0  0  0
 39 46  1  0  0  0  0
 39 47  1  0  0  0  0
 40 48  1  0  0  0  0
 47 48  2  0  0  0  0
 48 49  1  0  0  0  0
 49 50  2  0  0  0  0
 36 51  1  0  0  0  0
 50 51  1  0  0  0  0
 47 52  1  0  0  0  0
 51 52  2  0  0  0  0
 45 53  1  0  0  0  0
 45 54  1  0  0  0  0
 45 55  1  0  0  0  0
 34 56  1  0  0  0  0
 38 57  1  0  0  0  0
 43 58  1  0  0  0  0
 33 59  1  0  0  0  0
 39 60  1  0  0  0  0
 49 61  1  0  0  0  0
 50 62  1  0  0  0  0
 52 63  1  0  0  0  0
 40 64  1  0  0  0  0
 66 70  2  0  0  0  0
 69 73  1  0  0  0  0
 70 73  1  0  0  0  0
 65 74  1  0  0  0  0
 73 74  2  0  0  0  0
 74 75  1  0  0  0  0
 66 76  1  0  0  0  0
 75 76  2  0  0  0  0
 76 77  1  0  0  0  0
 65 78  1  0  0  0  0
 67 78  2  0  0  0  0
 71 78  1  0  0  0  0
 71 79  1  0  0  0  0
 72 80  1  0  0  0  0
 79 80  2  0  0  0  0
 80 81  1  0  0  0  0
 81 82  2  0  0  0  0
 68 83  1  0  0  0  0
 82 83  1  0  0  0  0
 79 84  1  0  0  0  0
 83 84  2  0  0  0  0
 77 85  1  0  0  0  0
 77 86  1  0  0  0  0
 77 87  1  0  0  0  0
 66 88  1  0  0  0  0
 70 89  1  0  0  0  0
 75 90  1  0  0  0  0
 65 91  1  0  0  0  0
 71 92  1  0  0  0  0
 81 93  1  0  0  0  0
 82 94  1  0  0  0  0
 84 95  1  0  0  0  0
 72 96  1  0  0  0  0
 98102  2  0  0  0  0
101105  1  0  0  0  0
102105  1  0  0  0  0
 97106  1  0  0  0  0
105106  2  0  0  0  0
106107  1  0  0  0  0
 98108  1  0  0  0  0
107108  2  0  0  0  0
108109  1  0  0  0  0
 97110  1  0  0  0  0
 99110  2  0  0  0  0
103110  1  0  0  0  0
103111  1  0  0  0  0
104112  1  0  0  0  0
111112  2  0  0  0  0
112113  1  0  0  0  0
113114  2  0  0  0  0
100115  1  0  0  0  0
114115  1  0  0  0  0
111116  1  0  0  0  0
115116  2  0  0  0  0
109117  1  0  0  0  0
109118  1  0  0  0  0
109119  1  0  0  0  0
 98120  1  0  0  0  0
102121  1  0  0  0  0
107122  1  0  0  0  0
 97123  1  0  0  0  0
103124  1  0  0  0  0
113125  1  0  0  0  0
114126  1  0  0  0  0
116127  1  0  0  0  0
104128  1  0  0  0  0
130134  2  0  0  0  0
133137  1  0  0  0  0
134137  1  0  0  0  0
129138  1  0  0  0  0
137138  2  0  0  0  0
138139  1  0  0  0  0
130140  1  0  0  0  0
139140  2  0  0  0  0
140141  1  0  0  0  0
129142  1  0  0  0  0
131142  2  0  0  0  0
135142  1  0  0  0  0
135143  1  0  0  0  0
136144  1  0  0  0  0
143144  2  0  0  0  0
144145  1  0  0  0  0
145146  2  0  0  0  0
132147  1  0  0  0  0
146147  1  0  0  0  0
143148  1  0  0  0  0
147148  2  0  0  0  0
141149  1  0  0  0  0
141150  1  0  0  0  0
141151  1  0  0  0  0
130152  1  0  0  0  0
134153  1  0  0  0  0
139154  1  0  0  0  0
129155  1  0  0  0  0
135156  1  0  0  0  0
145157  1  0  0  0  0
146158  1  0  0  0  0
148159  1  0  0  0  0
136160  1  0  0  0  0
M  END
$$$$
