8SZF
  PyMOL3.1          3D                             0

 26 28  0  0  0  0  0  0  0  0999 V2000
  215.8080  221.9480  240.7170 N   0  0  0  0  0  0  0  0  0  0  0  0
  215.2730  222.0990  242.0800 C   0  0  0  0  0  0  0  0  0  0  0  0
  216.4350  222.6490  242.9250 C   0  0  0  0  0  0  0  0  0  0  0  0
  216.9200  221.9290  244.0500 C   0  0  0  0  0  0  0  0  0  0  0  0
  217.9490  222.4270  244.7810 C   0  0  0  0  0  0  0  0  0  0  0  0
  216.3350  220.6940  244.4170 C   0  0  0  0  0  0  0  0  0  0  0  0
  218.4340  221.7020  245.9140 C   0  0  0  0  0  0  0  0  0  0  0  0
  216.8070  219.9930  245.5250 C   0  0  0  0  0  0  0  0  0  0  0  0
  217.8590  220.4980  246.2750 C   0  0  0  0  0  0  0  0  0  0  0  0
  214.1010  223.0740  242.0570 C   0  0  0  0  0  0  0  0  0  0  0  0
  216.0290  220.5440  240.4040 C   0  0  0  0  0  0  0  0  0  0  0  0
  216.8010  220.4180  239.0770 C   0  0  0  0  0  0  0  0  0  0  0  0
  217.0740  218.9460  238.7060 C   0  0  0  0  0  0  0  0  0  0  0  0
  218.1630  218.7930  237.6190 C   0  0  0  0  0  0  0  0  0  0  0  0
  219.4600  218.4240  237.9740 C   0  0  0  0  0  0  0  0  0  0  0  0
  220.4410  218.2870  236.9970 C   0  0  0  0  0  0  0  0  0  0  0  0
  220.1320  218.5170  235.6640 C   0  0  0  0  0  0  0  0  0  0  0  0
  218.8370  218.8840  235.3120 C   0  0  0  0  0  0  0  0  0  0  0  0
  217.8540  219.0220  236.2860 C   0  0  0  0  0  0  0  0  0  0  0  0
  221.8590  217.8860  237.3850 C   0  0  0  0  0  0  0  0  0  0  0  0
  217.0190  223.8550  242.5680 C   0  0  0  0  0  0  0  0  0  0  0  0
  218.0800  224.3600  243.3150 C   0  0  0  0  0  0  0  0  0  0  0  0
  218.5510  223.6660  244.4170 C   0  0  0  0  0  0  0  0  0  0  0  0
  222.4130  217.1560  236.3750 F   0  0  0  0  0  0  0  0  0  0  0  0
  221.8380  217.1460  238.5260 F   0  0  0  0  0  0  0  0  0  0  0  0
  222.6060  219.0070  237.5960 F   0  0  0  0  0  0  0  0  0  0  0  0
  1  2  1  0  0  0  0
  2  3  1  0  0  0  0
  3  4  1  0  0  0  0
  4  5  1  0  0  0  0
  4  6  2  0  0  0  0
  5  7  2  0  0  0  0
  6  8  1  0  0  0  0
  7  9  1  0  0  0  0
  8  9  2  0  0  0  0
  2 10  1  0  0  0  0
  1 11  1  0  0  0  0
 11 12  1  0  0  0  0
 12 13  1  0  0  0  0
 13 14  1  0  0  0  0
 14 15  1  0  0  0  0
 15 16  2  0  0  0  0
 16 17  1  0  0  0  0
 17 18  2  0  0  0  0
 14 19  2  0  0  0  0
 18 19  1  0  0  0  0
 16 20  1  0  0  0  0
  3 21  2  0  0  0  0
 21 22  1  0  0  0  0
  5 23  1  0  0  0  0
 22 23  2  0  0  0  0
 20 24  1  0  0  0  0
 20 25  1  0  0  0  0
 20 26  1  0  0  0  0
M  END
$$$$
