8V8V
  PyMOL3.1          3D                             0

 30 33  0  0  0  0  0  0  0  0999 V2000
    4.2690  -14.7600  -19.6810 C   0  0  0  0  0  0  0  0  0  0  0  0
    5.9200  -15.3100  -18.0820 N   0  0  0  0  0  0  0  0  0  0  0  0
    5.8190  -14.2630  -16.1120 O   0  0  0  0  0  0  0  0  0  0  0  0
    4.8300  -15.6590  -20.5790 C   0  0  0  0  0  0  0  0  0  0  0  0
    7.5860  -16.8530  -18.4800 N   0  0  0  0  0  0  0  0  0  0  0  0
    7.1270  -18.3660  -24.8580 O   0  0  0  0  0  0  0  0  0  0  0  0
    5.9360  -16.3930  -20.2220 C   0  0  0  0  0  0  0  0  0  0  0  0
    9.2000  -17.4130  -16.9010 N   0  0  0  0  0  0  0  0  0  0  0  0
    8.2250  -17.4070  -26.4200 O   0  0  0  0  0  0  0  0  0  0  0  0
    6.4940  -16.1970  -18.9340 C   0  0  0  0  0  0  0  0  0  0  0  0
    6.4730  -16.9140  -22.6090 N   0  0  0  0  0  0  0  0  0  0  0  0
    4.8110  -14.5950  -18.4500 C   0  0  0  0  0  0  0  0  0  0  0  0
    8.1050  -16.6720  -17.2280 C   0  0  0  0  0  0  0  0  0  0  0  0
    7.5400  -15.7870  -16.3780 C   0  0  0  0  0  0  0  0  0  0  0  0
    6.4280  -15.0830  -16.7920 C   0  0  0  0  0  0  0  0  0  0  0  0
    3.0500  -13.9800  -20.0940 C   0  0  0  0  0  0  0  0  0  0  0  0
    6.5640  -17.3580  -21.2250 C   0  0  0  0  0  0  0  0  0  0  0  0
    6.1250  -18.8200  -21.1190 C   0  0  0  0  0  0  0  0  0  0  0  0
    9.6130  -18.6500  -17.5710 C   0  0  0  0  0  0  0  0  0  0  0  0
   10.5420  -19.4900  -16.6720 C   0  0  0  0  0  0  0  0  0  0  0  0
   11.7040  -18.7080  -16.0490 C   0  0  0  0  0  0  0  0  0  0  0  0
   11.1220  -17.4900  -15.3430 C   0  0  0  0  0  0  0  0  0  0  0  0
   10.3390  -16.6530  -16.3450 C   0  0  0  0  0  0  0  0  0  0  0  0
    7.3420  -15.9590  -23.1780 C   0  0  0  0  0  0  0  0  0  0  0  0
    7.9350  -16.1640  -24.4410 C   0  0  0  0  0  0  0  0  0  0  0  0
    8.7880  -15.1750  -24.9450 C   0  0  0  0  0  0  0  0  0  0  0  0
    9.0540  -14.0170  -24.2480 C   0  0  0  0  0  0  0  0  0  0  0  0
    8.4600  -13.8300  -23.0160 C   0  0  0  0  0  0  0  0  0  0  0  0
    7.6160  -14.7810  -22.4960 C   0  0  0  0  0  0  0  0  0  0  0  0
    7.7430  -17.3530  -25.2600 C   0  0  0  0  0  0  0  0  0  0  0  0
  1  4  1  0  0  0  0
  4  7  2  0  0  0  0
  2 10  2  0  0  0  0
  5 10  1  0  0  0  0
  7 10  1  0  0  0  0
  1 12  2  0  0  0  0
  2 12  1  0  0  0  0
  5 13  2  0  0  0  0
  8 13  1  0  0  0  0
 13 14  1  0  0  0  0
  2 15  1  0  0  0  0
  3 15  2  0  0  0  0
 14 15  1  0  0  0  0
  1 16  1  0  0  0  0
  7 17  1  0  0  0  0
 11 17  1  0  0  0  0
 17 18  1  0  0  0  0
  8 19  1  0  0  0  0
 19 20  1  0  0  0  0
 20 21  1  0  0  0  0
 21 22  1  0  0  0  0
  8 23  1  0  0  0  0
 22 23  1  0  0  0  0
 11 24  1  0  0  0  0
 24 25  1  0  0  0  0
 25 26  2  0  0  0  0
 26 27  1  0  0  0  0
 27 28  2  0  0  0  0
 24 29  2  0  0  0  0
 28 29  1  0  0  0  0
  6 30  1  0  0  0  0
  9 30  2  0  0  0  0
 25 30  1  0  0  0  0
M  END
$$$$
