8V8V
  PyMOL3.1          3D                             0

 30 33  0  0  0  0  0  0  0  0999 V2000
   -7.4680   16.8800  -62.2020 C   0  0  0  0  0  0  0  0  0  0  0  0
   -5.2430   17.6390  -62.5790 N   0  0  0  0  0  0  0  0  0  0  0  0
   -4.0720   16.8070  -64.3030 O   0  0  0  0  0  0  0  0  0  0  0  0
   -7.5750   17.7160  -61.1000 C   0  0  0  0  0  0  0  0  0  0  0  0
   -4.2480   19.2210  -61.2000 N   0  0  0  0  0  0  0  0  0  0  0  0
   -8.2750   19.8300  -56.0360 O   0  0  0  0  0  0  0  0  0  0  0  0
   -6.5150   18.5060  -60.7440 C   0  0  0  0  0  0  0  0  0  0  0  0
   -2.0930   19.9900  -61.5280 N   0  0  0  0  0  0  0  0  0  0  0  0
   -8.5450   18.4150  -54.4580 O   0  0  0  0  0  0  0  0  0  0  0  0
   -5.3280   18.4650  -61.5010 C   0  0  0  0  0  0  0  0  0  0  0  0
   -7.2610   18.8720  -58.3770 N   0  0  0  0  0  0  0  0  0  0  0  0
   -6.3150   16.8480  -62.9300 C   0  0  0  0  0  0  0  0  0  0  0  0
   -3.1060   19.1930  -61.9270 C   0  0  0  0  0  0  0  0  0  0  0  0
   -2.9960   18.3800  -62.9920 C   0  0  0  0  0  0  0  0  0  0  0  0
   -4.0630   17.5740  -63.3460 C   0  0  0  0  0  0  0  0  0  0  0  0
   -8.6580   16.0280  -62.5600 C   0  0  0  0  0  0  0  0  0  0  0  0
   -6.5960   19.4190  -59.5420 C   0  0  0  0  0  0  0  0  0  0  0  0
   -7.2350   20.7490  -59.9070 C   0  0  0  0  0  0  0  0  0  0  0  0
   -2.0510   20.7720  -60.2890 C   0  0  0  0  0  0  0  0  0  0  0  0
   -0.9030   21.7990  -60.2730 C   0  0  0  0  0  0  0  0  0  0  0  0
    0.4530   21.2710  -60.7410 C   0  0  0  0  0  0  0  0  0  0  0  0
    0.2260   20.6990  -62.1260 C   0  0  0  0  0  0  0  0  0  0  0  0
   -0.7660   19.5550  -62.0130 C   0  0  0  0  0  0  0  0  0  0  0  0
   -6.7100   17.8920  -57.5360 C   0  0  0  0  0  0  0  0  0  0  0  0
   -7.0800   17.8060  -56.1810 C   0  0  0  0  0  0  0  0  0  0  0  0
   -6.5200   16.8220  -55.3700 C   0  0  0  0  0  0  0  0  0  0  0  0
   -5.6170   15.9270  -55.8810 C   0  0  0  0  0  0  0  0  0  0  0  0
   -5.2650   16.0160  -57.2150 C   0  0  0  0  0  0  0  0  0  0  0  0
   -5.8010   16.9780  -58.0340 C   0  0  0  0  0  0  0  0  0  0  0  0
   -8.0070   18.7150  -55.5480 C   0  0  0  0  0  0  0  0  0  0  0  0
  1  4  1  0  0  0  0
  4  7  2  0  0  0  0
  2 10  2  0  0  0  0
  5 10  1  0  0  0  0
  7 10  1  0  0  0  0
  1 12  2  0  0  0  0
  2 12  1  0  0  0  0
  5 13  2  0  0  0  0
  8 13  1  0  0  0  0
 13 14  1  0  0  0  0
  2 15  1  0  0  0  0
  3 15  2  0  0  0  0
 14 15  1  0  0  0  0
  1 16  1  0  0  0  0
  7 17  1  0  0  0  0
 11 17  1  0  0  0  0
 17 18  1  0  0  0  0
  8 19  1  0  0  0  0
 19 20  1  0  0  0  0
 20 21  1  0  0  0  0
 21 22  1  0  0  0  0
  8 23  1  0  0  0  0
 22 23  1  0  0  0  0
 11 24  1  0  0  0  0
 24 25  1  0  0  0  0
 25 26  2  0  0  0  0
 26 27  1  0  0  0  0
 27 28  2  0  0  0  0
 24 29  2  0  0  0  0
 28 29  1  0  0  0  0
  6 30  1  0  0  0  0
  9 30  2  0  0  0  0
 25 30  1  0  0  0  0
M  END
$$$$
