7WDB
  PyMOL3.1          3D                             0

 60 64  0  0  0  0  0  0  0  0999 V2000
  177.9160  130.3660  155.4080 C   0  0  0  0  0  0  0  0  0  0  0  0
  180.4310  133.1200  157.3610 N   0  0  0  0  0  0  0  0  0  0  0  0
  175.9690  129.1950  156.5950 O   0  0  0  0  0  0  0  0  0  0  0  0
  179.0220  132.6180  159.2570 S   0  0  0  0  0  0  0  0  0  0  0  0
  179.0600  131.3610  155.5500 C   0  0  0  0  0  0  0  0  0  0  0  0
  181.0350  134.3690  159.5260 N   0  0  0  0  0  0  0  0  0  0  0  0
  179.3430  132.0680  156.9150 C   0  0  0  0  0  0  0  0  0  0  0  0
  178.5150  131.7870  158.0720 C   0  0  0  0  0  0  0  0  0  0  0  0
  177.3520  130.7820  157.9430 C   0  0  0  0  0  0  0  0  0  0  0  0
  177.0520  130.0870  156.6250 C   0  0  0  0  0  0  0  0  0  0  0  0
  174.6840  129.8170  156.6070 C   0  0  0  0  0  0  0  0  0  0  0  0
  180.2320  133.4380  158.7480 C   0  0  0  0  0  0  0  0  0  0  0  0
  173.7310  128.8280  156.6740 F   0  0  0  0  0  0  0  0  0  0  0  0
  174.4950  130.6680  157.6860 F   0  0  0  0  0  0  0  0  0  0  0  0
  174.5070  130.5360  155.4420 F   0  0  0  0  0  0  0  0  0  0  0  0
  165.1950  177.9180  155.4030 C   0  0  0  0  0  0  0  0  0  0  0  0
  162.4400  180.4340  157.3560 N   0  0  0  0  0  0  0  0  0  0  0  0
  166.3660  175.9710  156.5910 O   0  0  0  0  0  0  0  0  0  0  0  0
  162.9420  179.0250  159.2520 S   0  0  0  0  0  0  0  0  0  0  0  0
  164.1990  179.0630  155.5450 C   0  0  0  0  0  0  0  0  0  0  0  0
  161.1920  181.0380  159.5210 N   0  0  0  0  0  0  0  0  0  0  0  0
  163.4920  179.3460  156.9100 C   0  0  0  0  0  0  0  0  0  0  0  0
  163.7730  178.5180  158.0670 C   0  0  0  0  0  0  0  0  0  0  0  0
  164.7780  177.3550  157.9380 C   0  0  0  0  0  0  0  0  0  0  0  0
  165.4740  177.0540  156.6200 C   0  0  0  0  0  0  0  0  0  0  0  0
  165.7430  174.6860  156.6030 C   0  0  0  0  0  0  0  0  0  0  0  0
  162.1220  180.2350  158.7430 C   0  0  0  0  0  0  0  0  0  0  0  0
  166.7320  173.7330  156.6700 F   0  0  0  0  0  0  0  0  0  0  0  0
  164.8920  174.4980  157.6820 F   0  0  0  0  0  0  0  0  0  0  0  0
  165.0240  174.5090  155.4380 F   0  0  0  0  0  0  0  0  0  0  0  0
  130.3630  117.6450  155.4060 C   0  0  0  0  0  0  0  0  0  0  0  0
  133.1180  115.1290  157.3590 N   0  0  0  0  0  0  0  0  0  0  0  0
  129.1920  119.5920  156.5930 O   0  0  0  0  0  0  0  0  0  0  0  0
  132.6150  116.5380  159.2550 S   0  0  0  0  0  0  0  0  0  0  0  0
  131.3590  116.5000  155.5480 C   0  0  0  0  0  0  0  0  0  0  0  0
  134.3660  114.5260  159.5250 N   0  0  0  0  0  0  0  0  0  0  0  0
  132.0660  116.2170  156.9130 C   0  0  0  0  0  0  0  0  0  0  0  0
  131.7840  117.0450  158.0700 C   0  0  0  0  0  0  0  0  0  0  0  0
  130.7790  118.2080  157.9410 C   0  0  0  0  0  0  0  0  0  0  0  0
  130.0840  118.5090  156.6230 C   0  0  0  0  0  0  0  0  0  0  0  0
  129.8150  120.8770  156.6050 C   0  0  0  0  0  0  0  0  0  0  0  0
  133.4360  115.3280  158.7460 C   0  0  0  0  0  0  0  0  0  0  0  0
  128.8260  121.8300  156.6720 F   0  0  0  0  0  0  0  0  0  0  0  0
  130.6660  121.0650  157.6840 F   0  0  0  0  0  0  0  0  0  0  0  0
  130.5340  121.0540  155.4400 F   0  0  0  0  0  0  0  0  0  0  0  0
  117.6420  165.1970  155.4020 C   0  0  0  0  0  0  0  0  0  0  0  0
  115.1270  162.4430  157.3550 N   0  0  0  0  0  0  0  0  0  0  0  0
  119.5890  166.3680  156.5890 O   0  0  0  0  0  0  0  0  0  0  0  0
  116.5360  162.9450  159.2510 S   0  0  0  0  0  0  0  0  0  0  0  0
  116.4980  164.2020  155.5440 C   0  0  0  0  0  0  0  0  0  0  0  0
  114.5230  161.1950  159.5200 N   0  0  0  0  0  0  0  0  0  0  0  0
  116.2150  163.4950  156.9090 C   0  0  0  0  0  0  0  0  0  0  0  0
  117.0420  163.7760  158.0660 C   0  0  0  0  0  0  0  0  0  0  0  0
  118.2050  164.7810  157.9370 C   0  0  0  0  0  0  0  0  0  0  0  0
  118.5060  165.4760  156.6190 C   0  0  0  0  0  0  0  0  0  0  0  0
  120.8740  165.7450  156.6010 C   0  0  0  0  0  0  0  0  0  0  0  0
  115.3260  162.1250  158.7420 C   0  0  0  0  0  0  0  0  0  0  0  0
  121.8270  166.7350  156.6680 F   0  0  0  0  0  0  0  0  0  0  0  0
  121.0620  164.8950  157.6800 F   0  0  0  0  0  0  0  0  0  0  0  0
  121.0510  165.0260  155.4360 F   0  0  0  0  0  0  0  0  0  0  0  0
  1  5  4  0  0  0  0
  5  7  4  0  0  0  0
  6 12  1  0  0  0  0
  2  7  4  0  0  0  0
  4  8  4  0  0  0  0
  7  8  4  0  0  0  0
  8  9  4  0  0  0  0
  1 10  4  0  0  0  0
  3 10  1  0  0  0  0
  9 10  4  0  0  0  0
  3 11  1  0  0  0  0
 11 13  1  0  0  0  0
 11 14  1  0  0  0  0
 11 15  1  0  0  0  0
  2 12  4  0  0  0  0
  4 12  4  0  0  0  0
 16 20  4  0  0  0  0
 20 22  4  0  0  0  0
 21 27  1  0  0  0  0
 17 22  4  0  0  0  0
 19 23  4  0  0  0  0
 22 23  4  0  0  0  0
 23 24  4  0  0  0  0
 16 25  4  0  0  0  0
 18 25  1  0  0  0  0
 24 25  4  0  0  0  0
 18 26  1  0  0  0  0
 26 28  1  0  0  0  0
 26 29  1  0  0  0  0
 26 30  1  0  0  0  0
 17 27  4  0  0  0  0
 19 27  4  0  0  0  0
 31 35  4  0  0  0  0
 35 37  4  0  0  0  0
 36 42  1  0  0  0  0
 32 37  4  0  0  0  0
 34 38  4  0  0  0  0
 37 38  4  0  0  0  0
 38 39  4  0  0  0  0
 31 40  4  0  0  0  0
 33 40  1  0  0  0  0
 39 40  4  0  0  0  0
 33 41  1  0  0  0  0
 41 43  1  0  0  0  0
 41 44  1  0  0  0  0
 41 45  1  0  0  0  0
 32 42  4  0  0  0  0
 34 42  4  0  0  0  0
 46 50  4  0  0  0  0
 50 52  4  0  0  0  0
 51 57  1  0  0  0  0
 47 52  4  0  0  0  0
 49 53  4  0  0  0  0
 52 53  4  0  0  0  0
 53 54  4  0  0  0  0
 46 55  4  0  0  0  0
 48 55  1  0  0  0  0
 54 55  4  0  0  0  0
 48 56  1  0  0  0  0
 56 58  1  0  0  0  0
 56 59  1  0  0  0  0
 56 60  1  0  0  0  0
 47 57  4  0  0  0  0
 49 57  4  0  0  0  0
M  END
$$$$
