7WDB
  PyMOL3.1          3D                             0

 15 16  0  0  0  0  0  0  0  0999 V2000
  130.3630  117.6450  155.4060 C   0  0  0  0  0  0  0  0  0  0  0  0
  133.1180  115.1290  157.3590 N   0  0  0  0  0  0  0  0  0  0  0  0
  129.1920  119.5920  156.5930 O   0  0  0  0  0  0  0  0  0  0  0  0
  132.6150  116.5380  159.2550 S   0  0  0  0  0  0  0  0  0  0  0  0
  131.3590  116.5000  155.5480 C   0  0  0  0  0  0  0  0  0  0  0  0
  134.3660  114.5260  159.5250 N   0  0  0  0  0  0  0  0  0  0  0  0
  132.0660  116.2170  156.9130 C   0  0  0  0  0  0  0  0  0  0  0  0
  131.7840  117.0450  158.0700 C   0  0  0  0  0  0  0  0  0  0  0  0
  130.7790  118.2080  157.9410 C   0  0  0  0  0  0  0  0  0  0  0  0
  130.0840  118.5090  156.6230 C   0  0  0  0  0  0  0  0  0  0  0  0
  129.8150  120.8770  156.6050 C   0  0  0  0  0  0  0  0  0  0  0  0
  133.4360  115.3280  158.7460 C   0  0  0  0  0  0  0  0  0  0  0  0
  128.8260  121.8300  156.6720 F   0  0  0  0  0  0  0  0  0  0  0  0
  130.6660  121.0650  157.6840 F   0  0  0  0  0  0  0  0  0  0  0  0
  130.5340  121.0540  155.4400 F   0  0  0  0  0  0  0  0  0  0  0  0
  1  5  4  0  0  0  0
  5  7  4  0  0  0  0
  6 12  1  0  0  0  0
  2  7  4  0  0  0  0
  4  8  4  0  0  0  0
  7  8  4  0  0  0  0
  8  9  4  0  0  0  0
  1 10  4  0  0  0  0
  3 10  1  0  0  0  0
  9 10  4  0  0  0  0
  3 11  1  0  0  0  0
 11 13  1  0  0  0  0
 11 14  1  0  0  0  0
 11 15  1  0  0  0  0
  2 12  4  0  0  0  0
  4 12  4  0  0  0  0
M  END
$$$$
