7WDB
  PyMOL3.1          3D                             0

 15 16  0  0  0  0  0  0  0  0999 V2000
  177.9160  130.3660  155.4080 C   0  0  0  0  0  0  0  0  0  0  0  0
  180.4310  133.1200  157.3610 N   0  0  0  0  0  0  0  0  0  0  0  0
  175.9690  129.1950  156.5950 O   0  0  0  0  0  0  0  0  0  0  0  0
  179.0220  132.6180  159.2570 S   0  0  0  0  0  0  0  0  0  0  0  0
  179.0600  131.3610  155.5500 C   0  0  0  0  0  0  0  0  0  0  0  0
  181.0350  134.3690  159.5260 N   0  0  0  0  0  0  0  0  0  0  0  0
  179.3430  132.0680  156.9150 C   0  0  0  0  0  0  0  0  0  0  0  0
  178.5150  131.7870  158.0720 C   0  0  0  0  0  0  0  0  0  0  0  0
  177.3520  130.7820  157.9430 C   0  0  0  0  0  0  0  0  0  0  0  0
  177.0520  130.0870  156.6250 C   0  0  0  0  0  0  0  0  0  0  0  0
  174.6840  129.8170  156.6070 C   0  0  0  0  0  0  0  0  0  0  0  0
  180.2320  133.4380  158.7480 C   0  0  0  0  0  0  0  0  0  0  0  0
  173.7310  128.8280  156.6740 F   0  0  0  0  0  0  0  0  0  0  0  0
  174.4950  130.6680  157.6860 F   0  0  0  0  0  0  0  0  0  0  0  0
  174.5070  130.5360  155.4420 F   0  0  0  0  0  0  0  0  0  0  0  0
  1  5  1  0  0  0  0
  2  7  1  0  0  0  0
  5  7  2  0  0  0  0
  4  8  1  0  0  0  0
  7  8  1  0  0  0  0
  8  9  2  0  0  0  0
  1 10  2  0  0  0  0
  3 10  1  0  0  0  0
  9 10  1  0  0  0  0
  3 11  1  0  0  0  0
  2 12  2  0  0  0  0
  4 12  1  0  0  0  0
  6 12  1  0  0  0  0
 11 13  1  0  0  0  0
 11 14  1  0  0  0  0
 11 15  1  0  0  0  0
M  END
$$$$
