7SZD
  PyMOL3.1          3D                             0

 46 50  0  0  0  0  0  0  0  0999 V2000
   12.7038  -14.0153   38.0741 C   0  0  0  0  0  0  0  0  0  0  0  0
   13.3076  -15.0164   37.2918 N   0  0  0  0  0  0  0  0  0  0  0  0
   12.1758  -14.1993   39.1441 O   0  0  0  0  0  0  0  0  0  0  0  0
   12.8266  -12.7492   37.3037 C   0  0  0  0  0  0  0  0  0  0  0  0
   13.0941  -17.4962   39.8956 N   0  0  0  0  0  0  0  0  0  0  0  0
   14.0581  -10.0597   33.3405 O   0  0  0  0  0  0  0  0  0  0  0  0
   13.4161  -13.0410   36.0911 C   0  0  0  0  0  0  0  0  0  0  0  0
   13.1995   -8.5376   34.6898 O   0  0  0  0  0  0  0  0  0  0  0  0
   13.6496  -12.0712   35.1436 C   0  0  0  0  0  0  0  0  0  0  0  0
   14.5693  -15.8454   39.4810 O   0  0  0  0  0  0  0  0  0  0  0  0
   13.2857  -10.7631   35.4499 C   0  0  0  0  0  0  0  0  0  0  0  0
   11.8170  -19.3022   40.3246 O   0  0  0  0  0  0  0  0  0  0  0  0
   13.5355   -9.7065   34.4186 C   0  0  0  0  0  0  0  0  0  0  0  0
   14.1632  -15.1270   35.1217 O   0  0  0  0  0  0  0  0  0  0  0  0
   12.6920  -10.4639   36.6765 C   0  0  0  0  0  0  0  0  0  0  0  0
   12.4561  -11.4594   37.6246 C   0  0  0  0  0  0  0  0  0  0  0  0
   13.7036  -14.4959   36.0438 C   0  0  0  0  0  0  0  0  0  0  0  0
   13.1661  -16.4404   37.6632 C   0  0  0  0  0  0  0  0  0  0  0  0
   13.6694  -16.5522   39.0741 C   0  0  0  0  0  0  0  0  0  0  0  0
   14.0791  -17.3807   36.8451 C   0  0  0  0  0  0  0  0  0  0  0  0
   11.7256  -16.9459   37.5437 C   0  0  0  0  0  0  0  0  0  0  0  0
   11.5908  -18.3364   38.1504 C   0  0  0  0  0  0  0  0  0  0  0  0
   12.1535  -18.4385   39.5330 C   0  0  0  0  0  0  0  0  0  0  0  0
   -8.9074  -18.4524   94.0860 C   0  0  0  0  0  0  0  0  0  0  0  0
   -8.9296  -19.3243   95.1963 N   0  0  0  0  0  0  0  0  0  0  0  0
   -8.2597  -18.6124   93.0734 O   0  0  0  0  0  0  0  0  0  0  0  0
   -9.8113  -17.3204   94.4346 C   0  0  0  0  0  0  0  0  0  0  0  0
   -6.9748  -21.8417   93.4978 N   0  0  0  0  0  0  0  0  0  0  0  0
  -12.7205  -13.4568   95.5740 O   0  0  0  0  0  0  0  0  0  0  0  0
  -10.2643  -17.5035   95.7287 C   0  0  0  0  0  0  0  0  0  0  0  0
  -12.8905  -14.7350   97.3686 O   0  0  0  0  0  0  0  0  0  0  0  0
  -11.1177  -16.6032   96.3302 C   0  0  0  0  0  0  0  0  0  0  0  0
   -9.1902  -21.3709   93.4334 O   0  0  0  0  0  0  0  0  0  0  0  0
  -11.5147  -15.4903   95.5925 C   0  0  0  0  0  0  0  0  0  0  0  0
   -4.8289  -22.5281   93.6105 O   0  0  0  0  0  0  0  0  0  0  0  0
  -12.4542  -14.4917   96.2227 C   0  0  0  0  0  0  0  0  0  0  0  0
   -9.7944  -19.2395   97.3579 O   0  0  0  0  0  0  0  0  0  0  0  0
  -11.0656  -15.3202   94.2832 C   0  0  0  0  0  0  0  0  0  0  0  0
  -10.2040  -16.2326   93.6844 C   0  0  0  0  0  0  0  0  0  0  0  0
   -9.6777  -18.7672   96.2541 C   0  0  0  0  0  0  0  0  0  0  0  0
   -7.9978  -20.4675   95.2768 C   0  0  0  0  0  0  0  0  0  0  0  0
   -8.1193  -21.2561   94.0009 C   0  0  0  0  0  0  0  0  0  0  0  0
   -8.3536  -21.4977   96.3660 C   0  0  0  0  0  0  0  0  0  0  0  0
   -6.5645  -19.9732   95.5162 C   0  0  0  0  0  0  0  0  0  0  0  0
   -5.5589  -21.1048   95.3683 C   0  0  0  0  0  0  0  0  0  0  0  0
   -5.7314  -21.8769   94.1009 C   0  0  0  0  0  0  0  0  0  0  0  0
  1  2  1  0  0  0  0
  1  3  2  0  0  0  0
  1  4  1  0  0  0  0
  4  7  2  0  0  0  0
  7  9  1  0  0  0  0
  9 11  2  0  0  0  0
  6 13  2  0  0  0  0
  8 13  1  0  0  0  0
 11 13  1  0  0  0  0
 11 15  1  0  0  0  0
  4 16  1  0  0  0  0
 15 16  2  0  0  0  0
  2 17  1  0  0  0  0
  7 17  1  0  0  0  0
 14 17  2  0  0  0  0
  2 18  1  0  0  0  0
  5 19  1  0  0  0  0
 10 19  2  0  0  0  0
 18 19  1  0  0  0  0
 18 20  1  0  0  0  0
 18 21  1  0  0  0  0
 21 22  1  0  0  0  0
  5 23  1  0  0  0  0
 12 23  2  0  0  0  0
 22 23  1  0  0  0  0
 24 25  1  0  0  0  0
 24 26  2  0  0  0  0
 24 27  1  0  0  0  0
 27 30  2  0  0  0  0
 30 32  1  0  0  0  0
 32 34  2  0  0  0  0
 29 36  2  0  0  0  0
 31 36  1  0  0  0  0
 34 36  1  0  0  0  0
 34 38  1  0  0  0  0
 27 39  1  0  0  0  0
 38 39  2  0  0  0  0
 25 40  1  0  0  0  0
 30 40  1  0  0  0  0
 37 40  2  0  0  0  0
 25 41  1  0  0  0  0
 28 42  1  0  0  0  0
 33 42  2  0  0  0  0
 41 42  1  0  0  0  0
 41 43  1  0  0  0  0
 41 44  1  0  0  0  0
 44 45  1  0  0  0  0
 28 46  1  0  0  0  0
 35 46  2  0  0  0  0
 45 46  1  0  0  0  0
M  END
$$$$
