7Y4G
  PyMOL3.1          3D                             0

 84 90  0  0  0  0  0  0  0  0999 V2000
   63.7870    5.8250   -0.8860 C   0  0  0  0  0  0  0  0  0  0  0  0
   62.5240    5.4610   -0.1900 C   0  0  0  0  0  0  0  0  0  0  0  0
   61.1600    5.6750   -0.7680 C   0  0  0  0  0  0  0  0  0  0  0  0
   60.9730    6.3030   -2.0890 C   0  0  0  0  0  0  0  0  0  0  0  0
   62.2490    6.6810   -2.8380 C   0  0  0  0  0  0  0  0  0  0  0  0
   63.5910    6.3970   -2.2410 C   0  0  0  0  0  0  0  0  0  0  0  0
   59.9100    5.2800   -0.0060 C   0  0  0  0  0  0  0  0  0  0  0  0
   59.5170    3.8890   -0.5230 C   0  0  0  0  0  0  0  0  0  0  0  0
   58.4110    3.3400    0.4040 C   0  0  0  0  0  0  0  0  0  0  0  0
   57.0440    3.9520   -0.0010 C   0  0  0  0  0  0  0  0  0  0  0  0
   55.8000    3.3840    0.5320 N   0  0  0  0  0  0  0  0  0  0  0  0
   60.6950    3.0280   -0.5310 N   0  0  0  0  0  0  0  0  0  0  0  0
   57.0520    4.8100   -0.8330 O   0  0  0  0  0  0  0  0  0  0  0  0
   55.8090    2.2810    1.4710 C   0  0  0  0  0  0  0  0  0  0  0  0
   55.0190    2.5320    2.7120 C   0  0  0  0  0  0  0  0  0  0  0  0
   53.6810    3.2160    2.5670 N   0  0  0  0  0  0  0  0  0  0  0  0
   53.3880    3.8700    1.3690 C   0  0  0  0  0  0  0  0  0  0  0  0
   54.4540    3.8040    0.2020 C   0  0  0  0  0  0  0  0  0  0  0  0
   52.6500    3.4270    3.4590 C   0  0  0  0  0  0  0  0  0  0  0  0
   51.6470    4.1290    2.8530 N   0  0  0  0  0  0  0  0  0  0  0  0
   52.1360    4.3860    1.5290 N   0  0  0  0  0  0  0  0  0  0  0  0
   52.6020    2.8570    4.8810 C   0  0  0  0  0  0  0  0  0  0  0  0
   62.7230    4.9210    1.0040 F   0  0  0  0  0  0  0  0  0  0  0  0
   51.4870    3.3380    5.5100 F   0  0  0  0  0  0  0  0  0  0  0  0
   53.7440    3.1020    5.5690 F   0  0  0  0  0  0  0  0  0  0  0  0
   52.5310    1.4950    4.8050 F   0  0  0  0  0  0  0  0  0  0  0  0
   64.6310    6.8410   -2.9630 F   0  0  0  0  0  0  0  0  0  0  0  0
   62.2550    7.2730   -4.0760 F   0  0  0  0  0  0  0  0  0  0  0  0
   47.0880    5.8830  -42.8560 C   0  0  0  0  0  0  0  0  0  0  0  0
   48.3250    5.4520  -43.5750 C   0  0  0  0  0  0  0  0  0  0  0  0
   49.6650    5.6900  -43.0280 C   0  0  0  0  0  0  0  0  0  0  0  0
   49.7830    6.3310  -41.6800 C   0  0  0  0  0  0  0  0  0  0  0  0
   48.5500    6.7210  -40.9600 C   0  0  0  0  0  0  0  0  0  0  0  0
   47.1940    6.5050  -41.5420 C   0  0  0  0  0  0  0  0  0  0  0  0
   50.9020    5.2870  -43.7620 C   0  0  0  0  0  0  0  0  0  0  0  0
   51.3070    3.9230  -43.2250 C   0  0  0  0  0  0  0  0  0  0  0  0
   52.4670    3.3200  -44.0550 C   0  0  0  0  0  0  0  0  0  0  0  0
   53.8360    3.8690  -43.6570 C   0  0  0  0  0  0  0  0  0  0  0  0
   55.1150    3.3240  -44.1210 N   0  0  0  0  0  0  0  0  0  0  0  0
   50.1620    3.0080  -43.2320 N   0  0  0  0  0  0  0  0  0  0  0  0
   53.8450    4.7320  -42.9000 O   0  0  0  0  0  0  0  0  0  0  0  0
   55.1170    2.2520  -45.0590 C   0  0  0  0  0  0  0  0  0  0  0  0
   55.8400    2.6270  -46.3030 C   0  0  0  0  0  0  0  0  0  0  0  0
   57.1130    3.3630  -46.1410 N   0  0  0  0  0  0  0  0  0  0  0  0
   57.4370    3.9130  -44.9170 C   0  0  0  0  0  0  0  0  0  0  0  0
   56.4370    3.7640  -43.7380 C   0  0  0  0  0  0  0  0  0  0  0  0
   58.1150    3.6400  -46.9960 C   0  0  0  0  0  0  0  0  0  0  0  0
   59.0950    4.3260  -46.3700 N   0  0  0  0  0  0  0  0  0  0  0  0
   58.6480    4.4770  -45.0590 N   0  0  0  0  0  0  0  0  0  0  0  0
   58.1280    3.2840  -48.4480 C   0  0  0  0  0  0  0  0  0  0  0  0
   48.1950    4.9170  -44.7970 F   0  0  0  0  0  0  0  0  0  0  0  0
   59.3590    3.6850  -48.8750 F   0  0  0  0  0  0  0  0  0  0  0  0
   57.1770    4.0670  -49.0660 F   0  0  0  0  0  0  0  0  0  0  0  0
   57.8070    1.9680  -48.6070 F   0  0  0  0  0  0  0  0  0  0  0  0
   46.0910    6.8890  -40.7850 F   0  0  0  0  0  0  0  0  0  0  0  0
   48.5660    7.2600  -39.7310 F   0  0  0  0  0  0  0  0  0  0  0  0
    9.5360    5.8700  -46.1770 C   0  0  0  0  0  0  0  0  0  0  0  0
    8.3010    5.4180  -45.4820 C   0  0  0  0  0  0  0  0  0  0  0  0
    6.9380    5.5930  -46.0180 C   0  0  0  0  0  0  0  0  0  0  0  0
    6.8210    6.2060  -47.3750 C   0  0  0  0  0  0  0  0  0  0  0  0
    8.0990    6.6380  -48.0710 C   0  0  0  0  0  0  0  0  0  0  0  0
    9.4420    6.4860  -47.4990 C   0  0  0  0  0  0  0  0  0  0  0  0
    5.7010    5.2120  -45.2350 C   0  0  0  0  0  0  0  0  0  0  0  0
    5.3070    3.9030  -45.8330 C   0  0  0  0  0  0  0  0  0  0  0  0
    4.1810    3.2530  -45.0570 C   0  0  0  0  0  0  0  0  0  0  0  0
    2.8690    3.9200  -45.4730 C   0  0  0  0  0  0  0  0  0  0  0  0
    1.6120    3.3340  -44.9870 N   0  0  0  0  0  0  0  0  0  0  0  0
    6.5330    3.1110  -45.8270 N   0  0  0  0  0  0  0  0  0  0  0  0
    2.9350    4.8620  -46.1960 O   0  0  0  0  0  0  0  0  0  0  0  0
    1.6330    2.1870  -44.1060 C   0  0  0  0  0  0  0  0  0  0  0  0
    0.8900    2.4130  -42.8220 C   0  0  0  0  0  0  0  0  0  0  0  0
   -0.4340    3.1050  -42.9170 N   0  0  0  0  0  0  0  0  0  0  0  0
   -0.7670    3.7790  -44.0860 C   0  0  0  0  0  0  0  0  0  0  0  0
    0.2670    3.7700  -45.2700 C   0  0  0  0  0  0  0  0  0  0  0  0
   -1.4850    3.2230  -42.0500 C   0  0  0  0  0  0  0  0  0  0  0  0
   -2.5010    3.9330  -42.6340 N   0  0  0  0  0  0  0  0  0  0  0  0
   -2.0200    4.2730  -43.9140 N   0  0  0  0  0  0  0  0  0  0  0  0
   -1.5030    2.6710  -40.6380 C   0  0  0  0  0  0  0  0  0  0  0  0
    8.5350    4.9090  -44.2990 F   0  0  0  0  0  0  0  0  0  0  0  0
   -2.7390    2.9630  -40.1310 F   0  0  0  0  0  0  0  0  0  0  0  0
   -0.5960    3.3540  -39.8920 F   0  0  0  0  0  0  0  0  0  0  0  0
   -1.1420    1.3520  -40.6110 F   0  0  0  0  0  0  0  0  0  0  0  0
   10.5540    6.8650  -48.2360 F   0  0  0  0  0  0  0  0  0  0  0  0
    8.0690    7.1780  -49.2860 F   0  0  0  0  0  0  0  0  0  0  0  0
  1  2  2  0  0  0  0
  2  3  1  0  0  0  0
  3  4  2  0  0  0  0
  4  5  1  0  0  0  0
  1  6  1  0  0  0  0
  5  6  2  0  0  0  0
  3  7  1  0  0  0  0
  7  8  1  0  0  0  0
  8  9  1  0  0  0  0
  9 10  1  0  0  0  0
 10 11  1  0  0  0  0
  8 12  1  0  0  0  0
 10 13  2  0  0  0  0
 11 14  1  0  0  0  0
 14 15  1  0  0  0  0
 15 16  1  0  0  0  0
 16 17  1  0  0  0  0
 11 18  1  0  0  0  0
 17 18  1  0  0  0  0
 16 19  1  0  0  0  0
 19 20  2  0  0  0  0
 17 21  2  0  0  0  0
 20 21  1  0  0  0  0
 19 22  1  0  0  0  0
  2 23  1  0  0  0  0
 22 24  1  0  0  0  0
 22 25  1  0  0  0  0
 22 26  1  0  0  0  0
  6 27  1  0  0  0  0
  5 28  1  0  0  0  0
 29 30  2  0  0  0  0
 30 31  1  0  0  0  0
 31 32  2  0  0  0  0
 32 33  1  0  0  0  0
 29 34  1  0  0  0  0
 33 34  2  0  0  0  0
 31 35  1  0  0  0  0
 35 36  1  0  0  0  0
 36 37  1  0  0  0  0
 37 38  1  0  0  0  0
 38 39  1  0  0  0  0
 36 40  1  0  0  0  0
 38 41  2  0  0  0  0
 39 42  1  0  0  0  0
 42 43  1  0  0  0  0
 43 44  1  0  0  0  0
 44 45  1  0  0  0  0
 39 46  1  0  0  0  0
 45 46  1  0  0  0  0
 44 47  1  0  0  0  0
 47 48  2  0  0  0  0
 45 49  2  0  0  0  0
 48 49  1  0  0  0  0
 47 50  1  0  0  0  0
 30 51  1  0  0  0  0
 50 52  1  0  0  0  0
 50 53  1  0  0  0  0
 50 54  1  0  0  0  0
 34 55  1  0  0  0  0
 33 56  1  0  0  0  0
 57 58  2  0  0  0  0
 58 59  1  0  0  0  0
 59 60  2  0  0  0  0
 60 61  1  0  0  0  0
 57 62  1  0  0  0  0
 61 62  2  0  0  0  0
 59 63  1  0  0  0  0
 63 64  1  0  0  0  0
 64 65  1  0  0  0  0
 65 66  1  0  0  0  0
 66 67  1  0  0  0  0
 64 68  1  0  0  0  0
 66 69  2  0  0  0  0
 67 70  1  0  0  0  0
 70 71  1  0  0  0  0
 71 72  1  0  0  0  0
 72 73  1  0  0  0  0
 67 74  1  0  0  0  0
 73 74  1  0  0  0  0
 72 75  1  0  0  0  0
 75 76  2  0  0  0  0
 73 77  2  0  0  0  0
 76 77  1  0  0  0  0
 75 78  1  0  0  0  0
 58 79  1  0  0  0  0
 78 80  1  0  0  0  0
 78 81  1  0  0  0  0
 78 82  1  0  0  0  0
 62 83  1  0  0  0  0
 61 84  1  0  0  0  0
M  END
$$$$
