7Y4G
  PyMOL3.1          3D                             0

 28 30  0  0  0  0  0  0  0  0999 V2000
   47.0880    5.8830  -42.8560 C   0  0  0  0  0  0  0  0  0  0  0  0
   48.3250    5.4520  -43.5750 C   0  0  0  0  0  0  0  0  0  0  0  0
   49.6650    5.6900  -43.0280 C   0  0  0  0  0  0  0  0  0  0  0  0
   49.7830    6.3310  -41.6800 C   0  0  0  0  0  0  0  0  0  0  0  0
   48.5500    6.7210  -40.9600 C   0  0  0  0  0  0  0  0  0  0  0  0
   47.1940    6.5050  -41.5420 C   0  0  0  0  0  0  0  0  0  0  0  0
   50.9020    5.2870  -43.7620 C   0  0  0  0  0  0  0  0  0  0  0  0
   51.3070    3.9230  -43.2250 C   0  0  0  0  0  0  0  0  0  0  0  0
   52.4670    3.3200  -44.0550 C   0  0  0  0  0  0  0  0  0  0  0  0
   53.8360    3.8690  -43.6570 C   0  0  0  0  0  0  0  0  0  0  0  0
   55.1150    3.3240  -44.1210 N   0  0  0  0  0  0  0  0  0  0  0  0
   50.1620    3.0080  -43.2320 N   0  0  0  0  0  0  0  0  0  0  0  0
   53.8450    4.7320  -42.9000 O   0  0  0  0  0  0  0  0  0  0  0  0
   55.1170    2.2520  -45.0590 C   0  0  0  0  0  0  0  0  0  0  0  0
   55.8400    2.6270  -46.3030 C   0  0  0  0  0  0  0  0  0  0  0  0
   57.1130    3.3630  -46.1410 N   0  0  0  0  0  0  0  0  0  0  0  0
   57.4370    3.9130  -44.9170 C   0  0  0  0  0  0  0  0  0  0  0  0
   56.4370    3.7640  -43.7380 C   0  0  0  0  0  0  0  0  0  0  0  0
   58.1150    3.6400  -46.9960 C   0  0  0  0  0  0  0  0  0  0  0  0
   59.0950    4.3260  -46.3700 N   0  0  0  0  0  0  0  0  0  0  0  0
   58.6480    4.4770  -45.0590 N   0  0  0  0  0  0  0  0  0  0  0  0
   58.1280    3.2840  -48.4480 C   0  0  0  0  0  0  0  0  0  0  0  0
   48.1950    4.9170  -44.7970 F   0  0  0  0  0  0  0  0  0  0  0  0
   59.3590    3.6850  -48.8750 F   0  0  0  0  0  0  0  0  0  0  0  0
   57.1770    4.0670  -49.0660 F   0  0  0  0  0  0  0  0  0  0  0  0
   57.8070    1.9680  -48.6070 F   0  0  0  0  0  0  0  0  0  0  0  0
   46.0910    6.8890  -40.7850 F   0  0  0  0  0  0  0  0  0  0  0  0
   48.5660    7.2600  -39.7310 F   0  0  0  0  0  0  0  0  0  0  0  0
  1  2  2  0  0  0  0
  2  3  1  0  0  0  0
  3  4  2  0  0  0  0
  4  5  1  0  0  0  0
  1  6  1  0  0  0  0
  5  6  2  0  0  0  0
  3  7  1  0  0  0  0
  7  8  1  0  0  0  0
  8  9  1  0  0  0  0
  9 10  1  0  0  0  0
 10 11  1  0  0  0  0
  8 12  1  0  0  0  0
 10 13  2  0  0  0  0
 11 14  1  0  0  0  0
 14 15  1  0  0  0  0
 15 16  1  0  0  0  0
 16 17  1  0  0  0  0
 11 18  1  0  0  0  0
 17 18  1  0  0  0  0
 16 19  1  0  0  0  0
 19 20  2  0  0  0  0
 17 21  2  0  0  0  0
 20 21  1  0  0  0  0
 19 22  1  0  0  0  0
  2 23  1  0  0  0  0
 22 24  1  0  0  0  0
 22 25  1  0  0  0  0
 22 26  1  0  0  0  0
  6 27  1  0  0  0  0
  5 28  1  0  0  0  0
M  END
$$$$
