7C7S
  PyMOL3.1          3D                             0

 25 26  0  0  0  0  0  0  0  0999 V2000
  166.0780  177.0780  228.7260 N   0  0  0  0  0  0  0  0  0  0  0  0
  171.4580  174.0610  225.7150 Cl  0  0  0  0  0  0  0  0  0  0  0  0
  171.4820  175.9230  228.2500 Cl  0  0  0  0  0  0  0  0  0  0  0  0
  164.2440  172.1500  229.0070 P   0  0  0  0  0  0  0  0  0  0  0  0
  166.3770  178.4620  226.6480 C   0  0  0  0  0  0  0  0  0  0  0  0
  162.9210  172.6270  228.5770 O   0  0  0  0  0  0  0  0  0  0  0  0
  166.4130  177.0760  227.2960 C   0  0  0  0  0  0  0  0  0  0  0  0
  163.9860  171.0640  230.1360 O   0  0  0  0  0  0  0  0  0  0  0  0
  167.6640  176.3550  226.9520 C   0  0  0  0  0  0  0  0  0  0  0  0
  163.9000  175.2830  228.5450 O   0  0  0  0  0  0  0  0  0  0  0  0
  168.8290  176.5140  227.7170 C   0  0  0  0  0  0  0  0  0  0  0  0
  169.9620  175.8170  227.3340 C   0  0  0  0  0  0  0  0  0  0  0  0
  169.9420  174.9250  226.1460 C   0  0  0  0  0  0  0  0  0  0  0  0
  168.7520  174.7860  225.4350 C   0  0  0  0  0  0  0  0  0  0  0  0
  167.6360  175.5190  225.8270 C   0  0  0  0  0  0  0  0  0  0  0  0
  166.0090  175.8620  229.5420 C   0  0  0  0  0  0  0  0  0  0  0  0
  165.2140  174.7550  228.8430 C   0  0  0  0  0  0  0  0  0  0  0  0
  165.1580  173.5330  229.7590 C   0  0  0  0  0  0  0  0  0  0  0  0
  165.1890  171.4540  227.6190 C   0  0  0  0  0  0  0  0  0  0  0  0
  166.6580  171.1410  227.9750 C   0  0  0  0  0  0  0  0  0  0  0  0
  167.5820  171.6650  226.8700 C   0  0  0  0  0  0  0  0  0  0  0  0
  169.0440  171.2320  226.9990 C   0  0  0  0  0  0  0  0  0  0  0  0
  169.2610  169.7280  227.2300 C   0  0  0  0  0  0  0  0  0  0  0  0
  167.9880  168.9180  227.5140 C   0  0  0  0  0  0  0  0  0  0  0  0
  166.8890  169.6600  228.3050 C   0  0  0  0  0  0  0  0  0  0  0  0
  1  7  1  0  0  0  0
  4  8  2  0  0  0  0
  4 18  1  0  0  0  0
  4 19  1  0  0  0  0
  4  6  2  0  0  0  0
  5  7  1  0  0  0  0
  7  9  1  0  0  0  0
  9 11  4  0  0  0  0
  9 15  4  0  0  0  0
  3 12  1  0  0  0  0
 11 12  4  0  0  0  0
  2 13  1  0  0  0  0
 12 13  4  0  0  0  0
 13 14  4  0  0  0  0
 14 15  4  0  0  0  0
  1 16  1  0  0  0  0
 10 17  1  0  0  0  0
 16 17  1  0  0  0  0
 17 18  1  0  0  0  0
 19 20  1  0  0  0  0
 20 21  1  0  0  0  0
 20 25  1  0  0  0  0
 21 22  1  0  0  0  0
 22 23  1  0  0  0  0
 23 24  1  0  0  0  0
 24 25  1  0  0  0  0
M  END
$$$$
