8BHB
  PyMOL3.1          3D                             0

 38 40  0  0  0  0  0  0  0  0999 V2000
  148.0060  153.3270  198.3150 N   0  0  0  0  0  0  0  0  0  0  0  0
  151.0990  151.7080  200.7930 C   0  0  0  0  0  0  0  0  0  0  0  0
  152.2650  151.4570  200.9710 O   0  0  0  0  0  0  0  0  0  0  0  0
  150.6330  149.3980  200.5310 C   0  0  0  0  0  0  0  0  0  0  0  0
  145.0630  158.4100  199.4030 N   0  0  0  0  0  0  0  0  0  0  0  0
  150.1700  150.7800  200.5640 O   0  0  0  0  0  0  0  0  0  0  0  0
  151.2920  149.1620  199.2330 C   0  0  0  0  0  0  0  0  0  0  0  0
  145.4920  159.5580  199.0560 N   0  0  0  0  0  0  0  0  0  0  0  0
  147.5980  154.9270  196.7990 O   0  0  0  0  0  0  0  0  0  0  0  0
  150.5390  153.0780  200.8050 C   0  0  0  0  0  0  0  0  0  0  0  0
  145.6800  160.6340  198.7280 N   0  0  0  0  0  0  0  0  0  0  0  0
  149.3200  153.5030  200.3370 C   0  0  0  0  0  0  0  0  0  0  0  0
  149.2910  154.8590  200.5680 N   0  0  0  0  0  0  0  0  0  0  0  0
  148.1510  152.8620  199.6950 C   0  0  0  0  0  0  0  0  0  0  0  0
  151.2630  154.1400  201.3230 N   0  0  0  0  0  0  0  0  0  0  0  0
  148.2210  152.3300  197.2780 C   0  0  0  0  0  0  0  0  0  0  0  0
  147.7010  154.5920  197.9640 C   0  0  0  0  0  0  0  0  0  0  0  0
  147.4810  155.5990  199.0480 C   0  0  0  0  0  0  0  0  0  0  0  0
  146.4410  156.4910  198.7920 C   0  0  0  0  0  0  0  0  0  0  0  0
  146.1270  157.5010  199.6920 C   0  0  0  0  0  0  0  0  0  0  0  0
  146.8580  157.6200  200.8660 C   0  0  0  0  0  0  0  0  0  0  0  0
  147.8930  156.7430  201.1410 C   0  0  0  0  0  0  0  0  0  0  0  0
  148.2120  155.7330  200.2400 C   0  0  0  0  0  0  0  0  0  0  0  0
  150.4820  155.1810  201.1620 C   0  0  0  0  0  0  0  0  0  0  0  0
  145.8690  156.3920  197.8710 H   0  0  0  0  0  0  0  0  0  0  0  0
  151.2970  149.1310  201.3510 H   0  0  0  0  0  0  0  0  0  0  0  0
  149.7330  148.7990  200.6540 H   0  0  0  0  0  0  0  0  0  0  0  0
  147.2430  153.0790  200.2540 H   0  0  0  0  0  0  0  0  0  0  0  0
  148.2510  151.7810  199.7380 H   0  0  0  0  0  0  0  0  0  0  0  0
  147.2960  151.8430  196.9780 H   0  0  0  0  0  0  0  0  0  0  0  0
  148.9090  151.5470  197.5910 H   0  0  0  0  0  0  0  0  0  0  0  0
  148.6650  152.7760  196.3900 H   0  0  0  0  0  0  0  0  0  0  0  0
  152.1450  149.8230  199.0980 H   0  0  0  0  0  0  0  0  0  0  0  0
  151.6610  148.1430  199.1360 H   0  0  0  0  0  0  0  0  0  0  0  0
  150.6290  149.3280  198.3860 H   0  0  0  0  0  0  0  0  0  0  0  0
  146.6330  158.4020  201.5880 H   0  0  0  0  0  0  0  0  0  0  0  0
  148.4490  156.8560  202.0700 H   0  0  0  0  0  0  0  0  0  0  0  0
  150.7520  156.1910  201.4660 H   0  0  0  0  0  0  0  0  0  0  0  0
  2  3  2  0  0  0  0
  2  6  1  0  0  0  0
  4  6  1  0  0  0  0
  4  7  1  0  0  0  0
  5  8  2  0  0  0  0
  2 10  1  0  0  0  0
  8 11  2  0  0  0  0
 10 12  2  0  0  0  0
 12 13  1  0  0  0  0
  1 14  1  0  0  0  0
 12 14  1  0  0  0  0
 10 15  1  0  0  0  0
  1 16  1  0  0  0  0
  1 17  1  0  0  0  0
  9 17  2  0  0  0  0
 17 18  1  0  0  0  0
 18 19  1  0  0  0  0
  5 20  1  0  0  0  0
 19 20  2  0  0  0  0
 20 21  1  0  0  0  0
 21 22  2  0  0  0  0
 13 23  1  0  0  0  0
 18 23  2  0  0  0  0
 22 23  1  0  0  0  0
 13 24  1  0  0  0  0
 15 24  2  0  0  0  0
 19 25  1  0  0  0  0
  4 26  1  0  0  0  0
  4 27  1  0  0  0  0
 14 28  1  0  0  0  0
 14 29  1  0  0  0  0
 16 30  1  0  0  0  0
 16 31  1  0  0  0  0
 16 32  1  0  0  0  0
  7 33  1  0  0  0  0
  7 34  1  0  0  0  0
  7 35  1  0  0  0  0
 21 36  1  0  0  0  0
 22 37  1  0  0  0  0
 24 38  1  0  0  0  0
M  END
$$$$
