8BHB
  PyMOL3.1          3D                             0

 38 40  0  0  0  0  0  0  0  0999 V2000
  177.4080  195.2810  198.3120 N   0  0  0  0  0  0  0  0  0  0  0  0
  173.9520  194.7780  200.7900 C   0  0  0  0  0  0  0  0  0  0  0  0
  172.8610  194.2970  200.9680 O   0  0  0  0  0  0  0  0  0  0  0  0
  172.9740  196.9220  200.5260 C   0  0  0  0  0  0  0  0  0  0  0  0
  182.7730  192.8920  199.4020 N   0  0  0  0  0  0  0  0  0  0  0  0
  174.1610  196.0750  200.5600 O   0  0  0  0  0  0  0  0  0  0  0  0
  172.3030  196.7270  199.2290 C   0  0  0  0  0  0  0  0  0  0  0  0
  183.0990  191.7100  199.0550 N   0  0  0  0  0  0  0  0  0  0  0  0
  178.6770  194.2250  196.7960 O   0  0  0  0  0  0  0  0  0  0  0  0
  175.2100  193.9970  200.8020 C   0  0  0  0  0  0  0  0  0  0  0  0
  183.5780  190.7280  198.7270 N   0  0  0  0  0  0  0  0  0  0  0  0
  176.4460  194.3680  200.3340 C   0  0  0  0  0  0  0  0  0  0  0  0
  177.2660  193.2870  200.5650 N   0  0  0  0  0  0  0  0  0  0  0  0
  177.0170  195.5720  199.6920 C   0  0  0  0  0  0  0  0  0  0  0  0
  175.2470  192.7130  201.3200 N   0  0  0  0  0  0  0  0  0  0  0  0
  176.6490  195.9610  197.2750 C   0  0  0  0  0  0  0  0  0  0  0  0
  178.3970  194.4360  197.9610 C   0  0  0  0  0  0  0  0  0  0  0  0
  179.1660  193.7490  199.0450 C   0  0  0  0  0  0  0  0  0  0  0  0
  180.5320  193.6370  198.7900 C   0  0  0  0  0  0  0  0  0  0  0  0
  181.3780  193.0040  199.6900 C   0  0  0  0  0  0  0  0  0  0  0  0
  180.8550  192.4780  200.8640 C   0  0  0  0  0  0  0  0  0  0  0  0
  179.5030  192.5810  201.1390 C   0  0  0  0  0  0  0  0  0  0  0  0
  178.6520  193.2120  200.2380 C   0  0  0  0  0  0  0  0  0  0  0  0
  176.4900  192.3270  201.1590 C   0  0  0  0  0  0  0  0  0  0  0  0
  180.9360  194.0520  197.8690 H   0  0  0  0  0  0  0  0  0  0  0  0
  172.2810  196.7490  201.3460 H   0  0  0  0  0  0  0  0  0  0  0  0
  173.3520  197.9350  200.6500 H   0  0  0  0  0  0  0  0  0  0  0  0
  177.8800  195.9300  200.2510 H   0  0  0  0  0  0  0  0  0  0  0  0
  176.3020  196.3900  199.7340 H   0  0  0  0  0  0  0  0  0  0  0  0
  177.1130  196.8990  196.9750 H   0  0  0  0  0  0  0  0  0  0  0  0
  175.6320  196.1920  197.5880 H   0  0  0  0  0  0  0  0  0  0  0  0
  176.5510  195.3400  196.3870 H   0  0  0  0  0  0  0  0  0  0  0  0
  172.0010  195.6900  199.0930 H   0  0  0  0  0  0  0  0  0  0  0  0
  171.4060  197.3350  199.1310 H   0  0  0  0  0  0  0  0  0  0  0  0
  172.9370  196.9800  198.3820 H   0  0  0  0  0  0  0  0  0  0  0  0
  181.4970  191.9770  201.5870 H   0  0  0  0  0  0  0  0  0  0  0  0
  179.1190  192.1640  202.0680 H   0  0  0  0  0  0  0  0  0  0  0  0
  176.8630  191.3510  201.4640 H   0  0  0  0  0  0  0  0  0  0  0  0
  2  3  2  0  0  0  0
  2  6  1  0  0  0  0
  4  6  1  0  0  0  0
  4  7  1  0  0  0  0
  5  8  2  0  0  0  0
  2 10  1  0  0  0  0
  8 11  2  0  0  0  0
 10 12  2  0  0  0  0
 12 13  1  0  0  0  0
  1 14  1  0  0  0  0
 12 14  1  0  0  0  0
 10 15  1  0  0  0  0
  1 16  1  0  0  0  0
  1 17  1  0  0  0  0
  9 17  2  0  0  0  0
 17 18  1  0  0  0  0
 18 19  1  0  0  0  0
  5 20  1  0  0  0  0
 19 20  2  0  0  0  0
 20 21  1  0  0  0  0
 21 22  2  0  0  0  0
 13 23  1  0  0  0  0
 18 23  2  0  0  0  0
 22 23  1  0  0  0  0
 13 24  1  0  0  0  0
 15 24  2  0  0  0  0
 19 25  1  0  0  0  0
  4 26  1  0  0  0  0
  4 27  1  0  0  0  0
 14 28  1  0  0  0  0
 14 29  1  0  0  0  0
 16 30  1  0  0  0  0
 16 31  1  0  0  0  0
 16 32  1  0  0  0  0
  7 33  1  0  0  0  0
  7 34  1  0  0  0  0
  7 35  1  0  0  0  0
 21 36  1  0  0  0  0
 22 37  1  0  0  0  0
 24 38  1  0  0  0  0
M  END
$$$$
