7ZEH
  PyMOL3.1          3D                             0

 80 88  0  0  0  0  0  0  0  0999 V2000
   38.5003   -2.2311   -0.3196 C   0  0  0  0  0  0  0  0  0  0  0  0
   37.9668    1.2607   -0.2781 N   0  0  0  0  0  0  0  0  0  0  0  0
   35.4831   -3.7128    0.8551 C   0  0  0  0  0  0  0  0  0  0  0  0
   37.2052   -5.1914   -0.1666 C   0  0  0  0  0  0  0  0  0  0  0  0
   36.4975   -0.3940    0.3868 N   0  0  0  0  0  0  0  0  0  0  0  0
   36.3451   -1.7275    0.4938 C   0  0  0  0  0  0  0  0  0  0  0  0
   38.6993   -0.9159   -0.4469 N   0  0  0  0  0  0  0  0  0  0  0  0
   35.7098   -5.9519   -2.0491 C   0  0  0  0  0  0  0  0  0  0  0  0
   37.7154   -0.0519   -0.0905 C   0  0  0  0  0  0  0  0  0  0  0  0
   39.4237   -2.9733   -0.6328 O   0  5  0  0  0  0  0  0  0  0  0  0
   36.8779   -5.3165   -1.6461 C   0  0  0  0  0  0  0  0  0  0  0  0
   36.6869   -3.9177    0.3459 N   0  0  0  0  0  0  0  0  0  0  0  0
   37.2779   -2.6706    0.1679 C   0  0  0  0  0  0  0  0  0  0  0  0
   35.3563   -6.0529   -3.3892 C   0  0  0  0  0  0  0  0  0  0  0  0
   35.2529   -2.4159    0.9368 N   0  0  0  0  0  0  0  0  0  0  0  0
   36.1939   -5.5048   -4.3183 C   0  0  0  0  0  0  0  0  0  0  0  0
   37.3452   -4.8767   -3.9361 C   0  0  0  0  0  0  0  0  0  0  0  0
   37.7033   -4.7655   -2.6119 C   0  0  0  0  0  0  0  0  0  0  0  0
   35.8832   -5.5895   -5.6359 F   0  0  0  0  0  0  0  0  0  0  0  0
   38.1492   -4.3510   -4.8845 F   0  0  0  0  0  0  0  0  0  0  0  0
   33.3042   37.1064   20.5566 C   0  0  0  0  0  0  0  0  0  0  0  0
   32.7225   33.5946   20.4298 N   0  0  0  0  0  0  0  0  0  0  0  0
   30.2998   38.6188   19.3027 C   0  0  0  0  0  0  0  0  0  0  0  0
   31.9958   40.0980   20.3500 C   0  0  0  0  0  0  0  0  0  0  0  0
   31.3156   35.3073   19.7659 N   0  0  0  0  0  0  0  0  0  0  0  0
   31.1639   36.6339   19.6713 C   0  0  0  0  0  0  0  0  0  0  0  0
   33.4938   35.7751   20.6746 N   0  0  0  0  0  0  0  0  0  0  0  0
   30.4713   40.8565   22.2170 C   0  0  0  0  0  0  0  0  0  0  0  0
   32.5096   34.9319   20.2755 C   0  0  0  0  0  0  0  0  0  0  0  0
   34.2215   37.8258   20.9054 O   0  5  0  0  0  0  0  0  0  0  0  0
   31.6356   40.2103   21.8199 C   0  0  0  0  0  0  0  0  0  0  0  0
   31.4936   38.8220   19.8316 N   0  0  0  0  0  0  0  0  0  0  0  0
   32.0853   37.5727   20.0295 C   0  0  0  0  0  0  0  0  0  0  0  0
   30.1123   40.9379   23.5570 C   0  0  0  0  0  0  0  0  0  0  0  0
   30.0755   37.3115   19.2147 N   0  0  0  0  0  0  0  0  0  0  0  0
   30.9356   40.3591   24.4840 C   0  0  0  0  0  0  0  0  0  0  0  0
   32.0723   39.7116   24.1084 C   0  0  0  0  0  0  0  0  0  0  0  0
   32.4337   39.6114   22.7829 C   0  0  0  0  0  0  0  0  0  0  0  0
   30.6329   40.4108   25.7958 F   0  0  0  0  0  0  0  0  0  0  0  0
   32.8384   39.1501   25.0725 F   0  0  0  0  0  0  0  0  0  0  0  0
   66.8773   25.7006  -10.1391 C   0  0  0  0  0  0  0  0  0  0  0  0
   65.5948   25.9942   -6.8477 N   0  0  0  0  0  0  0  0  0  0  0  0
   64.1446   24.5693  -12.1210 C   0  0  0  0  0  0  0  0  0  0  0  0
   66.1841   25.3130  -13.3121 C   0  0  0  0  0  0  0  0  0  0  0  0
   64.4898   25.2604   -8.7319 N   0  0  0  0  0  0  0  0  0  0  0  0
   64.6191   25.0377  -10.0447 C   0  0  0  0  0  0  0  0  0  0  0  0
   66.8013   25.9403   -8.8198 N   0  0  0  0  0  0  0  0  0  0  0  0
   64.9752   27.1165  -14.5923 C   0  0  0  0  0  0  0  0  0  0  0  0
   65.6348   25.7112   -8.1742 C   0  0  0  0  0  0  0  0  0  0  0  0
   67.9558   25.9254  -10.7018 O   0  5  0  0  0  0  0  0  0  0  0  0
   65.9435   26.7657  -13.6593 C   0  0  0  0  0  0  0  0  0  0  0  0
   65.4037   24.9808  -12.1153 N   0  0  0  0  0  0  0  0  0  0  0  0
   65.7473   25.2327  -10.7870 C   0  0  0  0  0  0  0  0  0  0  0  0
   64.7400   28.4564  -14.8838 C   0  0  0  0  0  0  0  0  0  0  0  0
   63.6549   24.6121  -10.8950 N   0  0  0  0  0  0  0  0  0  0  0  0
   65.4625   29.4107  -14.2197 C   0  0  0  0  0  0  0  0  0  0  0  0
   66.3982   29.0610  -13.2887 C   0  0  0  0  0  0  0  0  0  0  0  0
   66.6329   27.7511  -12.9772 C   0  0  0  0  0  0  0  0  0  0  0  0
   65.2684   30.7156  -14.4781 F   0  0  0  0  0  0  0  0  0  0  0  0
   67.0901   30.0311  -12.6582 F   0  0  0  0  0  0  0  0  0  0  0  0
   61.5660    9.1925   30.0508 C   0  0  0  0  0  0  0  0  0  0  0  0
   60.2531    8.9025   26.7765 N   0  0  0  0  0  0  0  0  0  0  0  0
   58.8983   10.3878   32.0618 C   0  0  0  0  0  0  0  0  0  0  0  0
   60.9367    9.5637   33.2239 C   0  0  0  0  0  0  0  0  0  0  0  0
   59.1552    9.6379   28.6696 N   0  0  0  0  0  0  0  0  0  0  0  0
   59.3105    9.8649   29.9839 C   0  0  0  0  0  0  0  0  0  0  0  0
   61.4720    8.9412   28.7338 N   0  0  0  0  0  0  0  0  0  0  0  0
   59.7647    7.7236   34.5015 C   0  0  0  0  0  0  0  0  0  0  0  0
   60.2981    9.1803   28.1007 C   0  0  0  0  0  0  0  0  0  0  0  0
   62.6401    9.0051   30.5893 O   0  5  0  0  0  0  0  0  0  0  0  0
   60.7211    8.1008   33.5667 C   0  0  0  0  0  0  0  0  0  0  0  0
   60.1424    9.9344   32.0401 N   0  0  0  0  0  0  0  0  0  0  0  0
   60.4557    9.6743   30.7057 C   0  0  0  0  0  0  0  0  0  0  0  0
   59.5478    6.3748   34.7906 C   0  0  0  0  0  0  0  0  0  0  0  0
   58.3754   10.3314   30.8528 N   0  0  0  0  0  0  0  0  0  0  0  0
   60.2824    5.4287   34.1225 C   0  0  0  0  0  0  0  0  0  0  0  0
   61.2067    5.8051   33.1872 C   0  0  0  0  0  0  0  0  0  0  0  0
   61.4302    7.1237   32.8908 C   0  0  0  0  0  0  0  0  0  0  0  0
   60.1055    4.1091   34.3738 F   0  0  0  0  0  0  0  0  0  0  0  0
   61.9125    4.8535   32.5410 F   0  0  0  0  0  0  0  0  0  0  0  0
  5  6  1  0  0  0  0
  1  7  2  0  0  0  0
  2  9  1  0  0  0  0
  5  9  2  0  0  0  0
  7  9  1  0  0  0  0
  1 10  1  0  0  0  0
  4 11  1  0  0  0  0
  8 11  1  0  0  0  0
  3 12  2  0  0  0  0
  4 12  1  0  0  0  0
  1 13  1  0  0  0  0
  6 13  2  0  0  0  0
 12 13  1  0  0  0  0
  8 14  2  0  0  0  0
  3 15  1  0  0  0  0
  6 15  1  0  0  0  0
 14 16  1  0  0  0  0
 16 17  2  0  0  0  0
 11 18  2  0  0  0  0
 17 18  1  0  0  0  0
 16 19  1  0  0  0  0
 17 20  1  0  0  0  0
 25 26  1  0  0  0  0
 21 27  2  0  0  0  0
 22 29  1  0  0  0  0
 25 29  2  0  0  0  0
 27 29  1  0  0  0  0
 21 30  1  0  0  0  0
 24 31  1  0  0  0  0
 28 31  1  0  0  0  0
 23 32  2  0  0  0  0
 24 32  1  0  0  0  0
 21 33  1  0  0  0  0
 26 33  2  0  0  0  0
 32 33  1  0  0  0  0
 28 34  2  0  0  0  0
 23 35  1  0  0  0  0
 26 35  1  0  0  0  0
 34 36  1  0  0  0  0
 36 37  2  0  0  0  0
 31 38  2  0  0  0  0
 37 38  1  0  0  0  0
 36 39  1  0  0  0  0
 37 40  1  0  0  0  0
 45 46  1  0  0  0  0
 41 47  2  0  0  0  0
 42 49  1  0  0  0  0
 45 49  2  0  0  0  0
 47 49  1  0  0  0  0
 41 50  1  0  0  0  0
 44 51  1  0  0  0  0
 48 51  1  0  0  0  0
 43 52  2  0  0  0  0
 44 52  1  0  0  0  0
 41 53  1  0  0  0  0
 46 53  2  0  0  0  0
 52 53  1  0  0  0  0
 48 54  2  0  0  0  0
 43 55  1  0  0  0  0
 46 55  1  0  0  0  0
 54 56  1  0  0  0  0
 56 57  2  0  0  0  0
 51 58  2  0  0  0  0
 57 58  1  0  0  0  0
 56 59  1  0  0  0  0
 57 60  1  0  0  0  0
 65 66  1  0  0  0  0
 61 67  2  0  0  0  0
 62 69  1  0  0  0  0
 65 69  2  0  0  0  0
 67 69  1  0  0  0  0
 61 70  1  0  0  0  0
 64 71  1  0  0  0  0
 68 71  1  0  0  0  0
 63 72  2  0  0  0  0
 64 72  1  0  0  0  0
 61 73  1  0  0  0  0
 66 73  2  0  0  0  0
 72 73  1  0  0  0  0
 68 74  2  0  0  0  0
 63 75  1  0  0  0  0
 66 75  1  0  0  0  0
 74 76  1  0  0  0  0
 76 77  2  0  0  0  0
 71 78  2  0  0  0  0
 77 78  1  0  0  0  0
 76 79  1  0  0  0  0
 77 80  1  0  0  0  0
M  END
$$$$
