8TZ6
  PyMOL3.1          3D                             0

 93 96  0  0  0  0  0  0  0  0999 V2000
  156.5130  137.7550  135.9260 C   0  0  0  0  0  0  0  0  0  0  0  0
  155.6780  137.0660  137.0040 C   0  0  0  0  0  0  0  0  0  0  0  0
  156.2910  137.0580  138.0690 C   0  0  0  0  0  0  0  0  0  0  0  0
  155.1050  136.8310  139.2010 C   0  0  0  0  0  0  0  0  0  0  0  0
  154.1850  137.6390  138.8620 O   0  0  0  0  0  0  0  0  0  0  0  0
  154.3290  137.8150  137.3450 C   0  0  0  0  0  0  0  0  0  0  0  0
  154.3670  139.1130  137.0300 N   0  0  0  0  0  0  0  0  0  0  0  0
  154.7240  140.0780  138.0480 C   0  0  0  0  0  0  0  0  0  0  0  0
  154.7740  141.5340  137.7240 C   0  0  0  0  0  0  0  0  0  0  0  0
  154.4490  141.9950  136.3440 C   0  0  0  0  0  0  0  0  0  0  0  0
  154.4850  143.1500  136.0780 O   0  0  0  0  0  0  0  0  0  0  0  0
  154.0880  141.0320  135.3270 N   0  0  0  0  0  0  0  0  0  0  0  0
  154.0370  139.5820  135.6570 C   0  0  0  0  0  0  0  0  0  0  0  0
  153.7450  138.8020  134.8170 O   0  0  0  0  0  0  0  0  0  0  0  0
  155.6770  137.1480  140.5670 C   0  0  0  0  0  0  0  0  0  0  0  0
  155.8380  138.5360  140.6830 O   0  0  0  0  0  0  0  0  0  0  0  0
  157.2650  135.9490  138.1070 O   0  0  0  0  0  0  0  0  0  0  0  0
  155.3930  135.6720  136.5940 F   0  0  0  0  0  0  0  0  0  0  0  0
  155.9920  137.6970  134.9790 H   0  0  0  0  0  0  0  0  0  0  0  0
  157.4690  137.2550  135.8460 H   0  0  0  0  0  0  0  0  0  0  0  0
  156.6720  138.7920  136.1890 H   0  0  0  0  0  0  0  0  0  0  0  0
  156.7800  138.0070  138.2400 H   0  0  0  0  0  0  0  0  0  0  0  0
  154.7430  135.8100  139.1620 H   0  0  0  0  0  0  0  0  0  0  0  0
  153.5030  137.3370  136.8350 H   0  0  0  0  0  0  0  0  0  0  0  0
  154.9600  139.7470  139.0480 H   0  0  0  0  0  0  0  0  0  0  0  0
  155.0450  142.2480  138.4920 H   0  0  0  0  0  0  0  0  0  0  0  0
  153.8710  141.3470  134.4010 H   0  0  0  0  0  0  0  0  0  0  0  0
  155.0130  136.7940  141.3420 H   0  0  0  0  0  0  0  0  0  0  0  0
  156.6410  136.6680  140.6720 H   0  0  0  0  0  0  0  0  0  0  0  0
  155.0520  138.9050  141.0450 H   0  0  0  0  0  0  0  0  0  0  0  0
  157.0010  135.2820  137.4970 H   0  0  0  0  0  0  0  0  0  0  0  0
  129.4400  154.2970  135.9440 C   0  0  0  0  0  0  0  0  0  0  0  0
  130.4540  153.9200  137.0240 C   0  0  0  0  0  0  0  0  0  0  0  0
  130.1510  154.4530  138.0890 C   0  0  0  0  0  0  0  0  0  0  0  0
  130.9420  153.5400  139.2200 C   0  0  0  0  0  0  0  0  0  0  0  0
  130.7050  152.3390  138.8800 O   0  0  0  0  0  0  0  0  0  0  0  0
  130.4810  152.3770  137.3630 C   0  0  0  0  0  0  0  0  0  0  0  0
  129.3400  151.7590  137.0470 N   0  0  0  0  0  0  0  0  0  0  0  0
  128.3240  151.5830  138.0630 C   0  0  0  0  0  0  0  0  0  0  0  0
  127.0400  150.8960  137.7370 C   0  0  0  0  0  0  0  0  0  0  0  0
  126.8060  150.3860  136.3570 C   0  0  0  0  0  0  0  0  0  0  0  0
  125.7890  149.8380  136.0890 O   0  0  0  0  0  0  0  0  0  0  0  0
  127.8210  150.5570  135.3400 N   0  0  0  0  0  0  0  0  0  0  0  0
  129.1010  151.2400  135.6720 C   0  0  0  0  0  0  0  0  0  0  0  0
  129.9240  151.3790  134.8340 O   0  0  0  0  0  0  0  0  0  0  0  0
  130.3790  153.8750  140.5860 C   0  0  0  0  0  0  0  0  0  0  0  0
  129.0980  153.3180  140.7010 O   0  0  0  0  0  0  0  0  0  0  0  0
  130.6230  155.8520  138.1280 O   0  0  0  0  0  0  0  0  0  0  0  0
  131.8030  154.3730  136.6150 F   0  0  0  0  0  0  0  0  0  0  0  0
  129.7570  153.8830  134.9960 H   0  0  0  0  0  0  0  0  0  0  0  0
  129.3880  155.3760  135.8700 H   0  0  0  0  0  0  0  0  0  0  0  0
  128.4630  153.9100  136.2010 H   0  0  0  0  0  0  0  0  0  0  0  0
  129.0850  154.4000  138.2580 H   0  0  0  0  0  0  0  0  0  0  0  0
  132.0070  153.7390  139.1830 H   0  0  0  0  0  0  0  0  0  0  0  0
  131.3100  151.9030  136.8520 H   0  0  0  0  0  0  0  0  0  0  0  0
  128.4920  151.9520  139.0630 H   0  0  0  0  0  0  0  0  0  0  0  0
  126.2860  150.7720  138.5040 H   0  0  0  0  0  0  0  0  0  0  0  0
  127.6580  150.2120  134.4140 H   0  0  0  0  0  0  0  0  0  0  0  0
  131.0180  153.4780  141.3620 H   0  0  0  0  0  0  0  0  0  0  0  0
  130.3100  154.9490  140.6920 H   0  0  0  0  0  0  0  0  0  0  0  0
  129.1730  152.4510  141.0570 H   0  0  0  0  0  0  0  0  0  0  0  0
  131.3330  155.9580  137.5190 H   0  0  0  0  0  0  0  0  0  0  0  0
  128.7010  122.6780  135.9050 C   0  0  0  0  0  0  0  0  0  0  0  0
  128.5210  123.7510  136.9790 C   0  0  0  0  0  0  0  0  0  0  0  0
  128.2180  123.2280  138.0490 C   0  0  0  0  0  0  0  0  0  0  0  0
  128.6140  124.3770  139.1710 C   0  0  0  0  0  0  0  0  0  0  0  0
  129.7700  124.7750  138.8230 O   0  0  0  0  0  0  0  0  0  0  0  0
  129.8420  124.5530  137.3070 C   0  0  0  0  0  0  0  0  0  0  0  0
  130.9490  123.8770  136.9890 N   0  0  0  0  0  0  0  0  0  0  0  0
  131.6180  123.0940  138.0070 C   0  0  0  0  0  0  0  0  0  0  0  0
  132.8560  122.3280  137.6800 C   0  0  0  0  0  0  0  0  0  0  0  0
  133.4090  122.3740  136.2970 C   0  0  0  0  0  0  0  0  0  0  0  0
  134.3930  121.7700  136.0280 O   0  0  0  0  0  0  0  0  0  0  0  0
  132.7440  123.1590  135.2790 N   0  0  0  0  0  0  0  0  0  0  0  0
  131.5120  123.9230  135.6120 C   0  0  0  0  0  0  0  0  0  0  0  0
  130.9730  124.5590  134.7720 O   0  0  0  0  0  0  0  0  0  0  0  0
  128.6150  123.7300  140.5410 C   0  0  0  0  0  0  0  0  0  0  0  0
  129.7420  122.9040  140.6550 O   0  0  0  0  0  0  0  0  0  0  0  0
  126.7720  122.9310  138.0970 O   0  0  0  0  0  0  0  0  0  0  0  0
  127.4490  124.6860  136.5700 F   0  0  0  0  0  0  0  0  0  0  0  0
  128.8940  123.1550  134.9530 H   0  0  0  0  0  0  0  0  0  0  0  0
  127.7950  122.0880  135.8390 H   0  0  0  0  0  0  0  0  0  0  0  0
  129.5290  122.0320  136.1620 H   0  0  0  0  0  0  0  0  0  0  0  0
  128.8020  122.3340  138.2200 H   0  0  0  0  0  0  0  0  0  0  0  0
  127.9070  125.1970  139.1320 H   0  0  0  0  0  0  0  0  0  0  0  0
  129.8320  125.5060  136.7920 H   0  0  0  0  0  0  0  0  0  0  0  0
  131.2190  123.0580  139.0090 H   0  0  0  0  0  0  0  0  0  0  0  0
  133.3460  121.7430  138.4480 H   0  0  0  0  0  0  0  0  0  0  0  0
  133.1200  123.1870  134.3500 H   0  0  0  0  0  0  0  0  0  0  0  0
  128.6390  124.4870  141.3120 H   0  0  0  0  0  0  0  0  0  0  0  0
  127.7230  123.1300  140.6540 H   0  0  0  0  0  0  0  0  0  0  0  0
  130.4560  123.4070  141.0050 H   0  0  0  0  0  0  0  0  0  0  0  0
  126.3190  123.4890  137.4890 H   0  0  0  0  0  0  0  0  0  0  0  0
  1  2  1  0  0  0  0
  2  3  1  0  0  0  0
  3  4  1  0  0  0  0
  4  5  1  0  0  0  0
  2  6  1  0  0  0  0
  5  6  1  0  0  0  0
  6  7  1  0  0  0  0
  7  8  1  0  0  0  0
  8  9  2  0  0  0  0
  9 10  1  0  0  0  0
 10 11  2  0  0  0  0
 10 12  1  0  0  0  0
  7 13  1  0  0  0  0
 12 13  1  0  0  0  0
 13 14  2  0  0  0  0
  4 15  1  0  0  0  0
 15 16  1  0  0  0  0
  3 17  1  0  0  0  0
  2 18  1  0  0  0  0
  1 19  1  0  0  0  0
  1 20  1  0  0  0  0
  1 21  1  0  0  0  0
  3 22  1  0  0  0  0
  4 23  1  0  0  0  0
  6 24  1  0  0  0  0
  8 25  1  0  0  0  0
  9 26  1  0  0  0  0
 12 27  1  0  0  0  0
 15 28  1  0  0  0  0
 15 29  1  0  0  0  0
 16 30  1  0  0  0  0
 17 31  1  0  0  0  0
 32 33  1  0  0  0  0
 33 34  1  0  0  0  0
 34 35  1  0  0  0  0
 35 36  1  0  0  0  0
 33 37  1  0  0  0  0
 36 37  1  0  0  0  0
 37 38  1  0  0  0  0
 38 39  1  0  0  0  0
 39 40  2  0  0  0  0
 40 41  1  0  0  0  0
 41 42  2  0  0  0  0
 41 43  1  0  0  0  0
 38 44  1  0  0  0  0
 43 44  1  0  0  0  0
 44 45  2  0  0  0  0
 35 46  1  0  0  0  0
 46 47  1  0  0  0  0
 34 48  1  0  0  0  0
 33 49  1  0  0  0  0
 32 50  1  0  0  0  0
 32 51  1  0  0  0  0
 32 52  1  0  0  0  0
 34 53  1  0  0  0  0
 35 54  1  0  0  0  0
 37 55  1  0  0  0  0
 39 56  1  0  0  0  0
 40 57  1  0  0  0  0
 43 58  1  0  0  0  0
 46 59  1  0  0  0  0
 46 60  1  0  0  0  0
 47 61  1  0  0  0  0
 48 62  1  0  0  0  0
 63 64  1  0  0  0  0
 64 65  1  0  0  0  0
 65 66  1  0  0  0  0
 66 67  1  0  0  0  0
 64 68  1  0  0  0  0
 67 68  1  0  0  0  0
 68 69  1  0  0  0  0
 69 70  1  0  0  0  0
 70 71  2  0  0  0  0
 71 72  1  0  0  0  0
 72 73  2  0  0  0  0
 72 74  1  0  0  0  0
 69 75  1  0  0  0  0
 74 75  1  0  0  0  0
 75 76  2  0  0  0  0
 66 77  1  0  0  0  0
 77 78  1  0  0  0  0
 65 79  1  0  0  0  0
 64 80  1  0  0  0  0
 63 81  1  0  0  0  0
 63 82  1  0  0  0  0
 63 83  1  0  0  0  0
 65 84  1  0  0  0  0
 66 85  1  0  0  0  0
 68 86  1  0  0  0  0
 70 87  1  0  0  0  0
 71 88  1  0  0  0  0
 74 89  1  0  0  0  0
 77 90  1  0  0  0  0
 77 91  1  0  0  0  0
 78 92  1  0  0  0  0
 79 93  1  0  0  0  0
M  END
$$$$
