8CVN
  PyMOL3.1          3D                             0

 56 62  0  0  0  0  0  0  0  0999 V2000
  119.3660  142.3500  118.0760 C   0  0  0  0  0  0  0  0  0  0  0  0
  121.4090  142.9070  119.0520 N   0  0  0  0  0  0  0  0  0  0  0  0
  121.7850  140.8620  128.5620 O   0  0  0  0  0  0  0  0  0  0  0  0
  119.1250  142.4170  119.7460 S   0  0  0  0  0  0  0  0  0  0  0  0
  120.7240  142.6600  117.9030 C   0  0  0  0  0  0  0  0  0  0  0  0
  120.6230  142.4040  122.5960 N   0  0  0  0  0  0  0  0  0  0  0  0
  120.4660  141.8870  125.3130 S   0  0  0  0  0  0  0  0  0  0  0  0
  120.7010  142.8170  120.1780 C   0  0  0  0  0  0  0  0  0  0  0  0
  124.9760  145.1920  122.7350 N   0  0  0  0  0  0  0  0  0  0  0  0
  121.5170  142.4440  128.1930 S   0  0  0  0  0  0  0  0  0  0  0  0
  121.1940  143.0480  121.5930 C   0  0  0  0  0  0  0  0  0  0  0  0
  124.9080  146.9170  124.0220 N   0  0  0  0  0  0  0  0  0  0  0  0
  122.2260  143.9520  121.8310 C   0  0  0  0  0  0  0  0  0  0  0  0
  123.3120  144.3160  126.2380 N   0  0  0  0  0  0  0  0  0  0  0  0
  122.6680  144.1640  123.1250 C   0  0  0  0  0  0  0  0  0  0  0  0
  122.0390  143.4560  124.1800 C   0  0  0  0  0  0  0  0  0  0  0  0
  121.0120  142.5800  123.8520 C   0  0  0  0  0  0  0  0  0  0  0  0
  122.2970  143.4910  125.6210 C   0  0  0  0  0  0  0  0  0  0  0  0
  121.4950  142.6560  126.4010 C   0  0  0  0  0  0  0  0  0  0  0  0
  123.7970  145.1740  123.3280 C   0  0  0  0  0  0  0  0  0  0  0  0
  125.6440  146.2430  123.1660 C   0  0  0  0  0  0  0  0  0  0  0  0
  123.7530  146.2950  124.1420 C   0  0  0  0  0  0  0  0  0  0  0  0
  125.4690  144.2180  121.7810 C   0  0  0  0  0  0  0  0  0  0  0  0
  127.0530  146.6290  122.7420 C   0  0  0  0  0  0  0  0  0  0  0  0
  119.8890  142.9720  128.7910 C   0  0  0  0  0  0  0  0  0  0  0  0
  119.7790  142.7710  130.2940 C   0  0  0  0  0  0  0  0  0  0  0  0
  120.2040  144.0220  131.0510 C   0  0  0  0  0  0  0  0  0  0  0  0
  120.7530  143.6850  132.4300 C   0  0  0  0  0  0  0  0  0  0  0  0
  146.8360  123.8930  118.0680 C   0  0  0  0  0  0  0  0  0  0  0  0
  144.7930  123.3370  119.0460 N   0  0  0  0  0  0  0  0  0  0  0  0
  144.4230  125.3800  128.5560 O   0  0  0  0  0  0  0  0  0  0  0  0
  147.0780  123.8260  119.7390 S   0  0  0  0  0  0  0  0  0  0  0  0
  145.4780  123.5840  117.8960 C   0  0  0  0  0  0  0  0  0  0  0  0
  145.5810  123.8390  122.5890 N   0  0  0  0  0  0  0  0  0  0  0  0
  145.7400  124.3550  125.3060 S   0  0  0  0  0  0  0  0  0  0  0  0
  145.5010  123.4270  120.1710 C   0  0  0  0  0  0  0  0  0  0  0  0
  141.2260  121.0540  122.7300 N   0  0  0  0  0  0  0  0  0  0  0  0
  144.6900  123.7990  128.1870 S   0  0  0  0  0  0  0  0  0  0  0  0
  145.0100  123.1950  121.5870 C   0  0  0  0  0  0  0  0  0  0  0  0
  141.2940  119.3290  124.0170 N   0  0  0  0  0  0  0  0  0  0  0  0
  143.9770  122.2920  121.8240 C   0  0  0  0  0  0  0  0  0  0  0  0
  142.8930  121.9280  126.2320 N   0  0  0  0  0  0  0  0  0  0  0  0
  143.5350  122.0800  123.1190 C   0  0  0  0  0  0  0  0  0  0  0  0
  144.1650  122.7870  124.1740 C   0  0  0  0  0  0  0  0  0  0  0  0
  145.1930  123.6630  123.8450 C   0  0  0  0  0  0  0  0  0  0  0  0
  143.9080  122.7520  125.6150 C   0  0  0  0  0  0  0  0  0  0  0  0
  144.7110  123.5870  126.3940 C   0  0  0  0  0  0  0  0  0  0  0  0
  142.4060  121.0710  123.3220 C   0  0  0  0  0  0  0  0  0  0  0  0
  140.5580  120.0030  123.1610 C   0  0  0  0  0  0  0  0  0  0  0  0
  142.4500  119.9490  124.1360 C   0  0  0  0  0  0  0  0  0  0  0  0
  140.7340  122.0270  121.7760 C   0  0  0  0  0  0  0  0  0  0  0  0
  139.1490  119.6180  122.7380 C   0  0  0  0  0  0  0  0  0  0  0  0
  146.3180  123.2700  128.7840 C   0  0  0  0  0  0  0  0  0  0  0  0
  146.4290  123.4700  130.2860 C   0  0  0  0  0  0  0  0  0  0  0  0
  146.0040  122.2190  131.0430 C   0  0  0  0  0  0  0  0  0  0  0  0
  145.4560  122.5560  132.4230 C   0  0  0  0  0  0  0  0  0  0  0  0
  1  4  1  0  0  0  0
  1  5  2  0  0  0  0
  2  5  1  0  0  0  0
  2  8  2  0  0  0  0
  4  8  1  0  0  0  0
  3 10  1  0  0  0  0
  6 11  1  0  0  0  0
  8 11  1  0  0  0  0
 11 13  2  0  0  0  0
 13 15  1  0  0  0  0
 15 16  2  0  0  0  0
  6 17  2  0  0  0  0
  7 17  1  0  0  0  0
 16 17  1  0  0  0  0
 14 18  1  0  0  0  0
 16 18  1  0  0  0  0
  7 19  1  0  0  0  0
 10 19  1  0  0  0  0
 18 19  2  0  0  0  0
  9 20  1  0  0  0  0
 15 20  1  0  0  0  0
  9 21  1  0  0  0  0
 12 21  2  0  0  0  0
 12 22  1  0  0  0  0
 20 22  2  0  0  0  0
  9 23  1  0  0  0  0
 21 24  1  0  0  0  0
 10 25  1  0  0  0  0
 25 26  1  0  0  0  0
 26 27  1  0  0  0  0
 27 28  1  0  0  0  0
 29 32  1  0  0  0  0
 29 33  2  0  0  0  0
 30 33  1  0  0  0  0
 30 36  2  0  0  0  0
 32 36  1  0  0  0  0
 31 38  1  0  0  0  0
 34 39  1  0  0  0  0
 36 39  1  0  0  0  0
 39 41  2  0  0  0  0
 41 43  1  0  0  0  0
 43 44  2  0  0  0  0
 34 45  2  0  0  0  0
 35 45  1  0  0  0  0
 44 45  1  0  0  0  0
 42 46  1  0  0  0  0
 44 46  1  0  0  0  0
 35 47  1  0  0  0  0
 38 47  1  0  0  0  0
 46 47  2  0  0  0  0
 37 48  1  0  0  0  0
 43 48  1  0  0  0  0
 37 49  1  0  0  0  0
 40 49  2  0  0  0  0
 40 50  1  0  0  0  0
 48 50  2  0  0  0  0
 37 51  1  0  0  0  0
 49 52  1  0  0  0  0
 38 53  1  0  0  0  0
 53 54  1  0  0  0  0
 54 55  1  0  0  0  0
 55 56  1  0  0  0  0
M  END
$$$$
