7N7O
  PyMOL3.1          3D                             0

 33 37  0  0  0  0  0  0  0  0999 V2000
  131.3160 -189.8810   96.7540 C   0  0  0  0  0  0  0  0  0  0  0  0
  137.0910 -187.5520   93.5630 N   0  0  0  0  0  0  0  0  0  0  0  0
  132.9140 -191.6760   96.9730 O   0  0  0  0  0  0  0  0  0  0  0  0
  132.5990 -190.6470   96.3700 C   0  0  0  0  0  0  0  0  0  0  0  0
  135.5210 -188.4980   92.1500 N   0  0  0  0  0  0  0  0  0  0  0  0
  131.9420 -190.9380   93.7590 O   0  0  0  0  0  0  0  0  0  0  0  0
  133.3720 -190.0900   95.3180 C   0  0  0  0  0  0  0  0  0  0  0  0
  133.6950 -189.7450   92.9330 N   0  0  0  0  0  0  0  0  0  0  0  0
  134.5430 -189.3320   95.5780 C   0  0  0  0  0  0  0  0  0  0  0  0
  137.3640 -187.2380   91.3190 N   0  0  0  0  0  0  0  0  0  0  0  0
  135.0240 -189.1070   96.8880 C   0  0  0  0  0  0  0  0  0  0  0  0
  137.6660 -186.6370   89.1150 N   0  0  0  0  0  0  0  0  0  0  0  0
  135.2520 -188.8030   94.4880 C   0  0  0  0  0  0  0  0  0  0  0  0
  137.1400 -188.3700   85.9010 N   0  0  0  0  0  0  0  0  0  0  0  0
  136.4090 -188.0560   94.6760 C   0  0  0  0  0  0  0  0  0  0  0  0
  135.7830 -188.3350   83.5200 N   0  0  0  0  0  0  0  0  0  0  0  0
  136.6470 -187.7810   92.3210 C   0  0  0  0  0  0  0  0  0  0  0  0
  134.8160 -189.0220   93.1800 C   0  0  0  0  0  0  0  0  0  0  0  0
  133.3310 -189.8880   91.4640 C   0  0  0  0  0  0  0  0  0  0  0  0
  131.9110 -189.3700   91.1340 C   0  0  0  0  0  0  0  0  0  0  0  0
  131.1940 -190.5350   90.4480 C   0  0  0  0  0  0  0  0  0  0  0  0
  131.9830 -191.7900   90.8520 C   0  0  0  0  0  0  0  0  0  0  0  0
  133.4260 -191.3100   90.9170 C   0  0  0  0  0  0  0  0  0  0  0  0
  132.9660 -190.2760   93.9750 C   0  0  0  0  0  0  0  0  0  0  0  0
  137.2690 -187.5700   90.0150 C   0  0  0  0  0  0  0  0  0  0  0  0
  137.6340 -186.8840   87.7240 C   0  0  0  0  0  0  0  0  0  0  0  0
  137.1860 -188.1230   87.2380 C   0  0  0  0  0  0  0  0  0  0  0  0
  136.7770 -189.0880   88.1760 C   0  0  0  0  0  0  0  0  0  0  0  0
  136.8250 -188.8170   89.5520 C   0  0  0  0  0  0  0  0  0  0  0  0
  137.5370 -187.2810   84.9340 C   0  0  0  0  0  0  0  0  0  0  0  0
  136.9870 -187.4790   83.5150 C   0  0  0  0  0  0  0  0  0  0  0  0
  136.0790 -189.7040   83.9930 C   0  0  0  0  0  0  0  0  0  0  0  0
  136.6900 -189.7190   85.4120 C   0  0  0  0  0  0  0  0  0  0  0  0
  1  4  1  0  0  0  0
  3  4  2  0  0  0  0
  4  7  1  0  0  0  0
  7  9  2  0  0  0  0
  9 11  1  0  0  0  0
  9 13  1  0  0  0  0
  2 15  2  0  0  0  0
 13 15  1  0  0  0  0
  2 17  1  0  0  0  0
  5 17  2  0  0  0  0
 10 17  1  0  0  0  0
  5 18  1  0  0  0  0
  8 18  1  0  0  0  0
 13 18  2  0  0  0  0
  8 19  1  0  0  0  0
 19 20  1  0  0  0  0
 20 21  1  0  0  0  0
 21 22  1  0  0  0  0
 19 23  1  0  0  0  0
 22 23  1  0  0  0  0
  6 24  2  0  0  0  0
  7 24  1  0  0  0  0
  8 24  1  0  0  0  0
 10 25  1  0  0  0  0
 12 25  2  0  0  0  0
 12 26  1  0  0  0  0
 14 27  1  0  0  0  0
 26 27  2  0  0  0  0
 27 28  1  0  0  0  0
 25 29  1  0  0  0  0
 28 29  2  0  0  0  0
 14 30  1  0  0  0  0
 16 31  1  0  0  0  0
 30 31  1  0  0  0  0
 16 32  1  0  0  0  0
 14 33  1  0  0  0  0
 32 33  1  0  0  0  0
M  END
$$$$
