8JT9
  PyMOL3.1          3D                             0

 29 32  0  0  0  0  0  0  0  0999 V2000
  129.7040  123.6740  115.0680 O   0  0  0  0  0  0  0  0  0  0  0  0
  132.5500  126.0850  110.0140 O   0  0  0  0  0  0  0  0  0  0  0  0
  135.9080  127.9990  111.9630 O   0  0  0  0  0  0  0  0  0  0  0  0
  132.5380  126.9410  113.8640 N   0  0  0  0  0  0  0  0  0  0  0  0
  134.1330  127.0820  111.0320 N   0  0  0  0  0  0  0  0  0  0  0  0
  136.3450  126.4350  110.5460 N   0  0  0  0  0  0  0  0  0  0  0  0
  130.5630  125.7910  115.6150 C   0  0  0  0  0  0  0  0  0  0  0  0
  132.0350  125.9620  115.9970 C   0  0  0  0  0  0  0  0  0  0  0  0
  130.3930  126.0310  114.1260 C   0  0  0  0  0  0  0  0  0  0  0  0
  132.8180  126.9980  115.1360 C   0  0  0  0  0  0  0  0  0  0  0  0
  131.2730  127.1450  113.6320 C   0  0  0  0  0  0  0  0  0  0  0  0
  133.2680  127.9190  113.2790 C   0  0  0  0  0  0  0  0  0  0  0  0
  130.0700  124.3610  115.9420 C   0  0  0  0  0  0  0  0  0  0  0  0
  133.1200  127.9410  111.7540 C   0  0  0  0  0  0  0  0  0  0  0  0
  130.0480  123.8070  117.3980 C   0  0  0  0  0  0  0  0  0  0  0  0
  133.6840  126.1910  110.1760 C   0  0  0  0  0  0  0  0  0  0  0  0
  135.4760  127.2180  111.2230 C   0  0  0  0  0  0  0  0  0  0  0  0
  129.6770  122.4610  117.6250 C   0  0  0  0  0  0  0  0  0  0  0  0
  130.3840  124.5960  118.5040 C   0  0  0  0  0  0  0  0  0  0  0  0
  134.5470  125.3830  109.4750 C   0  0  0  0  0  0  0  0  0  0  0  0
  135.9170  125.5240  109.6790 C   0  0  0  0  0  0  0  0  0  0  0  0
  129.6540  121.9420  118.9260 C   0  0  0  0  0  0  0  0  0  0  0  0
  130.3620  124.0690  119.7940 C   0  0  0  0  0  0  0  0  0  0  0  0
  134.0950  124.4400  108.5780 C   0  0  0  0  0  0  0  0  0  0  0  0
  136.8170  124.7440  109.0090 C   0  0  0  0  0  0  0  0  0  0  0  0
  129.9950  122.7480  120.0050 C   0  0  0  0  0  0  0  0  0  0  0  0
  134.9960  123.6510  107.8990 C   0  0  0  0  0  0  0  0  0  0  0  0
  136.3670  123.8060  108.1160 C   0  0  0  0  0  0  0  0  0  0  0  0
  129.9700  122.2420  121.2680 F   0  0  0  0  0  0  0  0  0  0  0  0
  7  8  1  0  0  0  0
  7  9  1  0  0  0  0
  4 10  1  0  0  0  0
  8 10  1  0  0  0  0
  4 11  1  0  0  0  0
  9 11  1  0  0  0  0
  4 12  1  0  0  0  0
  1 13  2  0  0  0  0
  7 13  1  0  0  0  0
  5 14  1  0  0  0  0
 12 14  1  0  0  0  0
 13 15  1  0  0  0  0
  2 16  2  0  0  0  0
  5 16  1  0  0  0  0
  3 17  2  0  0  0  0
  5 17  1  0  0  0  0
  6 17  1  0  0  0  0
 15 18  2  0  0  0  0
 15 19  1  0  0  0  0
 16 20  1  0  0  0  0
  6 21  1  0  0  0  0
 20 21  1  0  0  0  0
 18 22  1  0  0  0  0
 19 23  2  0  0  0  0
 20 24  2  0  0  0  0
 21 25  2  0  0  0  0
 22 26  2  0  0  0  0
 23 26  1  0  0  0  0
 24 27  1  0  0  0  0
 25 28  1  0  0  0  0
 27 28  2  0  0  0  0
 26 29  1  0  0  0  0
M  END
$$$$
