8TGD
  PyMOL3.1          3D                             0

 28 30  0  0  0  0  0  0  0  0999 V2000
   16.4920  -29.0910   90.5820 C   0  0  0  0  0  0  0  0  0  0  0  0
   19.0950  -28.7940   94.0220 N   0  0  0  0  0  0  0  0  0  0  0  0
   18.8300  -26.6750   92.1720 O   0  0  0  0  0  0  0  0  0  0  0  0
   17.4350  -28.0320   90.9840 C   0  0  0  0  0  0  0  0  0  0  0  0
   20.6600  -30.4850   94.5780 N   0  0  0  0  0  0  0  0  0  0  0  0
   18.4840  -30.9930   93.9010 O   0  0  0  0  0  0  0  0  0  0  0  0
   17.9350  -27.7280   92.2210 C   0  0  0  0  0  0  0  0  0  0  0  0
   21.0340  -34.0240   95.7360 N   0  0  0  0  0  0  0  0  0  0  0  0
   18.8500  -26.2670   90.8650 C   0  0  0  0  0  0  0  0  0  0  0  0
   22.4070  -35.7110   94.7350 N   0  0  0  0  0  0  0  0  0  0  0  0
   19.5700  -25.2000   90.3360 C   0  0  0  0  0  0  0  0  0  0  0  0
   22.4410  -33.6060   93.7320 N   0  0  0  0  0  0  0  0  0  0  0  0
   19.4810  -24.9530   88.9920 C   0  0  0  0  0  0  0  0  0  0  0  0
   18.6580  -25.7670   88.2160 C   0  0  0  0  0  0  0  0  0  0  0  0
   17.9050  -26.8180   88.7180 C   0  0  0  0  0  0  0  0  0  0  0  0
   18.0150  -27.0630   90.0740 C   0  0  0  0  0  0  0  0  0  0  0  0
   17.8050  -28.3200   93.5810 C   0  0  0  0  0  0  0  0  0  0  0  0
   19.3530  -30.1650   94.1530 C   0  0  0  0  0  0  0  0  0  0  0  0
   21.0770  -31.8440   94.6970 C   0  0  0  0  0  0  0  0  0  0  0  0
   20.6240  -32.7370   95.6860 C   0  0  0  0  0  0  0  0  0  0  0  0
   21.9380  -34.4190   94.7310 C   0  0  0  0  0  0  0  0  0  0  0  0
   21.9810  -32.3540   93.7400 C   0  0  0  0  0  0  0  0  0  0  0  0
   17.4010  -27.1450   94.5580 C   0  0  0  0  0  0  0  0  0  0  0  0
   20.3500  -24.4720   91.0930 F   0  0  0  0  0  0  0  0  0  0  0  0
   18.6030  -25.5040   86.9210 F   0  0  0  0  0  0  0  0  0  0  0  0
   16.3380  -26.4460   94.1330 F   0  0  0  0  0  0  0  0  0  0  0  0
   17.0680  -27.5880   95.7710 F   0  0  0  0  0  0  0  0  0  0  0  0
   18.3950  -26.2520   94.7550 F   0  0  0  0  0  0  0  0  0  0  0  0
  1  4  1  0  0  0  0
  3  7  1  0  0  0  0
  4  7  2  0  0  0  0
  3  9  1  0  0  0  0
  9 11  1  0  0  0  0
 11 13  2  0  0  0  0
 13 14  1  0  0  0  0
 14 15  2  0  0  0  0
  4 16  1  0  0  0  0
  9 16  2  0  0  0  0
 15 16  1  0  0  0  0
  2 17  1  0  0  0  0
  7 17  1  0  0  0  0
  2 18  1  0  0  0  0
  5 18  1  0  0  0  0
  6 18  2  0  0  0  0
  5 19  1  0  0  0  0
  8 20  2  0  0  0  0
 19 20  1  0  0  0  0
  8 21  1  0  0  0  0
 10 21  1  0  0  0  0
 12 21  2  0  0  0  0
 12 22  1  0  0  0  0
 19 22  2  0  0  0  0
 17 23  1  0  0  0  0
 11 24  1  0  0  0  0
 14 25  1  0  0  0  0
 23 26  1  0  0  0  0
 23 27  1  0  0  0  0
 23 28  1  0  0  0  0
M  END
$$$$
