6W57
  PyMOL3.1          3D                             0

 32 34  0  0  0  0  0  0  0  0999 V2000
   20.4700  -36.1360    5.0130 Cl  0  0  0  0  0  0  0  0  0  0  0  0
   25.3650  -35.5960    1.9540 C   0  0  0  0  0  0  0  0  0  0  0  0
   23.2820  -36.8350    5.4330 N   0  0  0  0  0  0  0  0  0  0  0  0
   25.3010  -36.7380    6.5020 O   0  0  0  0  0  0  0  0  0  0  0  0
   22.5820  -39.3480    9.9430 S   0  0  0  0  0  0  0  0  0  0  0  0
   26.6450  -36.0020    1.7290 C   0  0  0  0  0  0  0  0  0  0  0  0
   21.9650  -40.8020    9.8800 N   0  0  0  0  0  0  0  0  0  0  0  0
   24.0180  -39.4580    9.8470 O   0  0  0  0  0  0  0  0  0  0  0  0
   27.2430  -36.6680    2.7550 C   0  0  0  0  0  0  0  0  0  0  0  0
   22.0800  -38.5950   11.0730 O   0  0  0  0  0  0  0  0  0  0  0  0
   26.6270  -36.9240    3.9650 C   0  0  0  0  0  0  0  0  0  0  0  0
   22.7800  -44.8710    6.2210 O   0  0  0  0  0  0  0  0  0  0  0  0
   25.3310  -36.4510    4.1720 C   0  0  0  0  0  0  0  0  0  0  0  0
   24.6940  -35.7540    3.1470 C   0  0  0  0  0  0  0  0  0  0  0  0
   24.6450  -36.7140    5.4710 C   0  0  0  0  0  0  0  0  0  0  0  0
   22.4420  -37.2550    6.4830 C   0  0  0  0  0  0  0  0  0  0  0  0
   21.0850  -37.0100    6.3770 C   0  0  0  0  0  0  0  0  0  0  0  0
   20.1990  -37.4870    7.3080 C   0  0  0  0  0  0  0  0  0  0  0  0
   20.6610  -38.1820    8.3930 C   0  0  0  0  0  0  0  0  0  0  0  0
   22.0010  -38.4570    8.5210 C   0  0  0  0  0  0  0  0  0  0  0  0
   22.9040  -38.0430    7.5550 C   0  0  0  0  0  0  0  0  0  0  0  0
   22.2410  -41.7680    8.8740 C   0  0  0  0  0  0  0  0  0  0  0  0
   23.1500  -41.5830    7.8420 C   0  0  0  0  0  0  0  0  0  0  0  0
   23.3270  -42.5840    6.8960 C   0  0  0  0  0  0  0  0  0  0  0  0
   22.6110  -43.7720    7.0240 C   0  0  0  0  0  0  0  0  0  0  0  0
   21.7570  -43.9650    8.0980 C   0  0  0  0  0  0  0  0  0  0  0  0
   21.5770  -42.9660    9.0230 C   0  0  0  0  0  0  0  0  0  0  0  0
   22.2830  -44.8750    4.9730 C   0  0  0  0  0  0  0  0  0  0  0  0
   24.7600  -34.9190    0.9410 F   0  0  0  0  0  0  0  0  0  0  0  0
   28.4850  -37.1670    2.5120 F   0  0  0  0  0  0  0  0  0  0  0  0
   22.6640  -43.7720    4.3390 F   0  0  0  0  0  0  0  0  0  0  0  0
   21.0040  -44.7730    5.1250 F   0  0  0  0  0  0  0  0  0  0  0  0
  2  6  2  0  0  0  0
  5  7  1  0  0  0  0
  5  8  2  0  0  0  0
  6  9  1  0  0  0  0
  5 10  2  0  0  0  0
  9 11  2  0  0  0  0
 11 13  1  0  0  0  0
  2 14  1  0  0  0  0
 13 14  2  0  0  0  0
  3 15  1  0  0  0  0
  4 15  2  0  0  0  0
 13 15  1  0  0  0  0
  3 16  1  0  0  0  0
  1 17  1  0  0  0  0
 16 17  2  0  0  0  0
 17 18  1  0  0  0  0
 18 19  2  0  0  0  0
  5 20  1  0  0  0  0
 19 20  1  0  0  0  0
 16 21  1  0  0  0  0
 20 21  2  0  0  0  0
  7 22  1  0  0  0  0
 22 23  2  0  0  0  0
 23 24  1  0  0  0  0
 12 25  1  0  0  0  0
 24 25  2  0  0  0  0
 25 26  1  0  0  0  0
 22 27  1  0  0  0  0
 26 27  2  0  0  0  0
 12 28  1  0  0  0  0
  2 29  1  0  0  0  0
  9 30  1  0  0  0  0
 28 31  1  0  0  0  0
 28 32  1  0  0  0  0
M  END
$$$$
