8V4X
  PyMOL3.1          3D                             0

 33 36  0  0  0  0  0  0  0  0999 V2000
  -21.0100  -12.2080  -42.0680 N   0  0  0  0  0  0  0  0  0  0  0  0
  -22.0500  -11.5090  -41.5170 C   0  0  0  0  0  0  0  0  0  0  0  0
  -23.2030  -11.9200  -41.4790 O   0  0  0  0  0  0  0  0  0  0  0  0
  -22.4420   -9.4060  -40.2520 C   0  0  0  0  0  0  0  0  0  0  0  0
  -21.6530  -10.3010  -41.0080 N   0  0  0  0  0  0  0  0  0  0  0  0
  -20.3960   -7.9350  -41.8060 O   0  0  0  0  0  0  0  0  0  0  0  0
  -22.4800   -8.0430  -40.5440 C   0  0  0  0  0  0  0  0  0  0  0  0
  -23.4410   -5.8290  -39.8420 N   0  0  0  0  0  0  0  0  0  0  0  0
  -23.2500   -7.1990  -39.7320 C   0  0  0  0  0  0  0  0  0  0  0  0
  -23.8760   -9.0960  -38.3810 N   0  0  0  0  0  0  0  0  0  0  0  0
  -23.8900   -7.7980  -38.6840 C   0  0  0  0  0  0  0  0  0  0  0  0
  -19.8850  -15.1570  -43.9700 N   0  0  0  0  0  0  0  0  0  0  0  0
  -24.1990   -5.4000  -38.8850 C   0  0  0  0  0  0  0  0  0  0  0  0
  -20.9870  -17.0940  -44.7390 N   0  0  0  0  0  0  0  0  0  0  0  0
  -24.6020   -3.9750  -38.7110 C   0  0  0  0  0  0  0  0  0  0  0  0
  -21.6060  -17.2790  -45.9100 N   0  0  0  0  0  0  0  0  0  0  0  0
  -23.1550   -9.9020  -39.1670 C   0  0  0  0  0  0  0  0  0  0  0  0
  -20.3940  -18.1790  -44.2290 N   0  0  0  0  0  0  0  0  0  0  0  0
  -21.6930   -7.3710  -41.6730 C   0  0  0  0  0  0  0  0  0  0  0  0
  -19.3840   -7.1160  -41.2370 C   0  0  0  0  0  0  0  0  0  0  0  0
  -22.3510   -7.5010  -43.0280 C   0  0  0  0  0  0  0  0  0  0  0  0
  -21.0520  -13.4880  -42.6670 C   0  0  0  0  0  0  0  0  0  0  0  0
  -19.9300  -13.9870  -43.3210 C   0  0  0  0  0  0  0  0  0  0  0  0
  -21.0230  -15.8670  -43.9920 C   0  0  0  0  0  0  0  0  0  0  0  0
  -21.4110  -18.5680  -46.1590 C   0  0  0  0  0  0  0  0  0  0  0  0
  -20.6610  -19.1230  -45.1240 C   0  0  0  0  0  0  0  0  0  0  0  0
  -22.2410  -15.4690  -43.3660 C   0  0  0  0  0  0  0  0  0  0  0  0
  -22.2060  -14.2630  -42.6790 C   0  0  0  0  0  0  0  0  0  0  0  0
  -23.6010  -16.1030  -43.4430 C   0  0  0  0  0  0  0  0  0  0  0  0
  -23.5780  -17.3590  -43.8860 F   0  0  0  0  0  0  0  0  0  0  0  0
  -24.2060  -16.1310  -42.2540 F   0  0  0  0  0  0  0  0  0  0  0  0
  -24.4000  -15.4710  -44.2950 F   0  0  0  0  0  0  0  0  0  0  0  0
  -24.7590   -6.6080  -37.7560 S   0  0  0  0  0  0  0  0  0  0  0  0
  1  2  1  0  0  0  0
  2  3  2  0  0  0  0
  2  5  1  0  0  0  0
  4  5  1  0  0  0  0
  4  7  2  0  0  0  0
  7  9  1  0  0  0  0
  8  9  1  0  0  0  0
  9 11  2  0  0  0  0
 10 11  1  0  0  0  0
  8 13  2  0  0  0  0
 13 15  1  0  0  0  0
 14 16  1  0  0  0  0
  4 17  1  0  0  0  0
 10 17  2  0  0  0  0
 14 18  1  0  0  0  0
  6 19  1  0  0  0  0
  7 19  1  0  0  0  0
  6 20  1  0  0  0  0
 19 21  1  0  0  0  0
  1 22  1  0  0  0  0
 12 23  1  0  0  0  0
 22 23  2  0  0  0  0
 12 24  2  0  0  0  0
 14 24  1  0  0  0  0
 16 25  2  0  0  0  0
 18 26  2  0  0  0  0
 25 26  1  0  0  0  0
 24 27  1  0  0  0  0
 22 28  1  0  0  0  0
 27 28  2  0  0  0  0
 27 29  1  0  0  0  0
 29 30  1  0  0  0  0
 29 31  1  0  0  0  0
 29 32  1  0  0  0  0
 11 33  1  0  0  0  0
 13 33  1  0  0  0  0
M  END
$$$$
