8V4X
  PyMOL3.1          3D                             0

 33 36  0  0  0  0  0  0  0  0999 V2000
  -72.3420  -23.8730  -71.3680 N   0  0  0  0  0  0  0  0  0  0  0  0
  -72.1530  -22.5910  -70.9140 C   0  0  0  0  0  0  0  0  0  0  0  0
  -72.9540  -21.6740  -71.0800 O   0  0  0  0  0  0  0  0  0  0  0  0
  -70.5180  -21.2870  -69.5760 C   0  0  0  0  0  0  0  0  0  0  0  0
  -70.9670  -22.4470  -70.2460 N   0  0  0  0  0  0  0  0  0  0  0  0
  -68.4440  -22.4540  -71.4110 O   0  0  0  0  0  0  0  0  0  0  0  0
  -69.3260  -20.6670  -69.9530 C   0  0  0  0  0  0  0  0  0  0  0  0
  -67.7630  -18.7840  -69.4200 N   0  0  0  0  0  0  0  0  0  0  0  0
  -68.9020  -19.5490  -69.2230 C   0  0  0  0  0  0  0  0  0  0  0  0
  -70.8660  -19.7160  -67.8180 N   0  0  0  0  0  0  0  0  0  0  0  0
  -69.7190  -19.1490  -68.1940 C   0  0  0  0  0  0  0  0  0  0  0  0
  -74.3630  -26.2590  -73.3160 N   0  0  0  0  0  0  0  0  0  0  0  0
  -67.7170  -17.8180  -68.5610 C   0  0  0  0  0  0  0  0  0  0  0  0
  -76.5560  -26.2970  -74.0760 N   0  0  0  0  0  0  0  0  0  0  0  0
  -66.6210  -16.8100  -68.4970 C   0  0  0  0  0  0  0  0  0  0  0  0
  -77.1800  -25.8400  -75.1660 N   0  0  0  0  0  0  0  0  0  0  0  0
  -71.2650  -20.7900  -68.5090 C   0  0  0  0  0  0  0  0  0  0  0  0
  -77.0000  -27.4710  -73.6140 N   0  0  0  0  0  0  0  0  0  0  0  0
  -68.4550  -21.0580  -71.1510 C   0  0  0  0  0  0  0  0  0  0  0  0
  -67.3440  -23.1120  -70.8090 C   0  0  0  0  0  0  0  0  0  0  0  0
  -68.8620  -20.3640  -72.4310 C   0  0  0  0  0  0  0  0  0  0  0  0
  -73.4520  -24.3910  -72.0790 C   0  0  0  0  0  0  0  0  0  0  0  0
  -73.3620  -25.6500  -72.6680 C   0  0  0  0  0  0  0  0  0  0  0  0
  -75.5210  -25.5860  -73.3870 C   0  0  0  0  0  0  0  0  0  0  0  0
  -78.0930  -26.7740  -75.4110 C   0  0  0  0  0  0  0  0  0  0  0  0
  -77.9810  -27.7810  -74.4530 C   0  0  0  0  0  0  0  0  0  0  0  0
  -75.7470  -24.2870  -72.8310 C   0  0  0  0  0  0  0  0  0  0  0  0
  -74.6630  -23.7120  -72.1810 C   0  0  0  0  0  0  0  0  0  0  0  0
  -77.0030  -23.4580  -72.8510 C   0  0  0  0  0  0  0  0  0  0  0  0
  -78.1040  -24.1830  -73.0200 F   0  0  0  0  0  0  0  0  0  0  0  0
  -77.1950  -22.7890  -71.7210 F   0  0  0  0  0  0  0  0  0  0  0  0
  -76.9940  -22.5460  -73.8120 F   0  0  0  0  0  0  0  0  0  0  0  0
  -69.0430  -17.7410  -67.4270 S   0  0  0  0  0  0  0  0  0  0  0  0
  1  2  1  0  0  0  0
  2  3  2  0  0  0  0
  2  5  1  0  0  0  0
  4  5  1  0  0  0  0
  4  7  2  0  0  0  0
  7  9  1  0  0  0  0
  8  9  1  0  0  0  0
  9 11  2  0  0  0  0
 10 11  1  0  0  0  0
  8 13  2  0  0  0  0
 13 15  1  0  0  0  0
 14 16  1  0  0  0  0
  4 17  1  0  0  0  0
 10 17  2  0  0  0  0
 14 18  1  0  0  0  0
  6 19  1  0  0  0  0
  7 19  1  0  0  0  0
  6 20  1  0  0  0  0
 19 21  1  0  0  0  0
  1 22  1  0  0  0  0
 12 23  1  0  0  0  0
 22 23  2  0  0  0  0
 12 24  2  0  0  0  0
 14 24  1  0  0  0  0
 16 25  2  0  0  0  0
 18 26  2  0  0  0  0
 25 26  1  0  0  0  0
 24 27  1  0  0  0  0
 22 28  1  0  0  0  0
 27 28  2  0  0  0  0
 27 29  1  0  0  0  0
 29 30  1  0  0  0  0
 29 31  1  0  0  0  0
 29 32  1  0  0  0  0
 11 33  1  0  0  0  0
 13 33  1  0  0  0  0
M  END
$$$$
