8V4X
  PyMOL3.1          3D                             0

 33 36  0  0  0  0  0  0  0  0999 V2000
  -88.3560  -14.0630  -16.7950 N   0  0  0  0  0  0  0  0  0  0  0  0
  -87.3860  -13.3140  -17.4060 C   0  0  0  0  0  0  0  0  0  0  0  0
  -86.1950  -13.5900  -17.3880 O   0  0  0  0  0  0  0  0  0  0  0  0
  -87.2200  -11.2300  -18.7840 C   0  0  0  0  0  0  0  0  0  0  0  0
  -87.9040  -12.2210  -18.0420 N   0  0  0  0  0  0  0  0  0  0  0  0
  -89.3060  -10.1220  -17.0460 O   0  0  0  0  0  0  0  0  0  0  0  0
  -87.3050   -9.8910  -18.4010 C   0  0  0  0  0  0  0  0  0  0  0  0
  -86.4870   -7.5540  -18.9010 N   0  0  0  0  0  0  0  0  0  0  0  0
  -86.6300   -8.9160  -19.1490 C   0  0  0  0  0  0  0  0  0  0  0  0
  -85.8590  -10.6640  -20.6600 N   0  0  0  0  0  0  0  0  0  0  0  0
  -85.9280   -9.3980  -20.2410 C   0  0  0  0  0  0  0  0  0  0  0  0
  -89.3760  -17.0780  -14.9640 N   0  0  0  0  0  0  0  0  0  0  0  0
  -85.6800   -7.0200  -19.7600 C   0  0  0  0  0  0  0  0  0  0  0  0
  -88.2170  -19.0010  -14.1090 N   0  0  0  0  0  0  0  0  0  0  0  0
  -85.2980   -5.5780  -19.7630 C   0  0  0  0  0  0  0  0  0  0  0  0
  -87.7350  -19.1420  -12.8690 N   0  0  0  0  0  0  0  0  0  0  0  0
  -86.4960  -11.5830  -19.9220 C   0  0  0  0  0  0  0  0  0  0  0  0
  -88.6960  -20.1210  -14.6690 N   0  0  0  0  0  0  0  0  0  0  0  0
  -88.0760   -9.4200  -17.1740 C   0  0  0  0  0  0  0  0  0  0  0  0
  -90.3300   -9.5820  -17.8700 C   0  0  0  0  0  0  0  0  0  0  0  0
  -87.3160   -9.6170  -15.8810 C   0  0  0  0  0  0  0  0  0  0  0  0
  -88.2170  -15.3130  -16.1400 C   0  0  0  0  0  0  0  0  0  0  0  0
  -89.3580  -15.9040  -15.6060 C   0  0  0  0  0  0  0  0  0  0  0  0
  -88.2000  -17.7210  -14.8570 C   0  0  0  0  0  0  0  0  0  0  0  0
  -87.9160  -20.4330  -12.6140 C   0  0  0  0  0  0  0  0  0  0  0  0
  -88.5090  -21.0380  -13.7280 C   0  0  0  0  0  0  0  0  0  0  0  0
  -86.9640  -17.2460  -15.4040 C   0  0  0  0  0  0  0  0  0  0  0  0
  -87.0100  -16.0000  -16.0210 C   0  0  0  0  0  0  0  0  0  0  0  0
  -85.6810  -18.0170  -15.5430 C   0  0  0  0  0  0  0  0  0  0  0  0
  -85.6950  -19.1810  -14.8940 F   0  0  0  0  0  0  0  0  0  0  0  0
  -85.4140  -18.3240  -16.8010 F   0  0  0  0  0  0  0  0  0  0  0  0
  -84.6290  -17.3480  -15.0850 F   0  0  0  0  0  0  0  0  0  0  0  0
  -85.0300   -8.0980  -20.9700 S   0  0  0  0  0  0  0  0  0  0  0  0
  1  2  1  0  0  0  0
  2  3  2  0  0  0  0
  2  5  1  0  0  0  0
  4  5  1  0  0  0  0
  4  7  2  0  0  0  0
  7  9  1  0  0  0  0
  8  9  1  0  0  0  0
  9 11  2  0  0  0  0
 10 11  1  0  0  0  0
  8 13  2  0  0  0  0
 13 15  1  0  0  0  0
 14 16  1  0  0  0  0
  4 17  1  0  0  0  0
 10 17  2  0  0  0  0
 14 18  1  0  0  0  0
  6 19  1  0  0  0  0
  7 19  1  0  0  0  0
  6 20  1  0  0  0  0
 19 21  1  0  0  0  0
  1 22  1  0  0  0  0
 12 23  1  0  0  0  0
 22 23  2  0  0  0  0
 12 24  2  0  0  0  0
 14 24  1  0  0  0  0
 16 25  2  0  0  0  0
 18 26  2  0  0  0  0
 25 26  1  0  0  0  0
 24 27  1  0  0  0  0
 22 28  1  0  0  0  0
 27 28  2  0  0  0  0
 27 29  1  0  0  0  0
 29 30  1  0  0  0  0
 29 31  1  0  0  0  0
 29 32  1  0  0  0  0
 11 33  1  0  0  0  0
 13 33  1  0  0  0  0
M  END
$$$$
