8C8C
  PyMOL3.1          3D                             0

 27 30  0  0  0  0  0  0  0  0999 V2000
    3.4720   20.8530   20.6910 Cl  0  0  0  0  0  0  0  0  0  0  0  0
    3.3730   23.4820   23.9780 C   0  0  0  0  0  0  0  0  0  0  0  0
    7.9270   23.2130   19.4650 N   0  0  0  0  0  0  0  0  0  0  0  0
    3.5440   22.6360   22.8500 O   0  0  0  0  0  0  0  0  0  0  0  0
    4.6470   22.8160   22.0750 C   0  0  0  0  0  0  0  0  0  0  0  0
    9.6120   22.7420   17.9280 N   0  0  0  0  0  0  0  0  0  0  0  0
    5.6470   23.7630   22.2880 C   0  0  0  0  0  0  0  0  0  0  0  0
   10.5530   20.5520   17.5780 N   0  0  0  0  0  0  0  0  0  0  0  0
    6.7130   23.8650   21.4140 C   0  0  0  0  0  0  0  0  0  0  0  0
    9.5610   18.8060   18.9670 N   0  0  0  0  0  0  0  0  0  0  0  0
    6.8200   23.0280   20.3180 C   0  0  0  0  0  0  0  0  0  0  0  0
    8.7310   22.2980   18.8520 C   0  0  0  0  0  0  0  0  0  0  0  0
   10.4320   21.8600   17.3340 C   0  0  0  0  0  0  0  0  0  0  0  0
    9.6910   20.1080   18.5050 C   0  0  0  0  0  0  0  0  0  0  0  0
    8.7470   20.9120   19.1870 C   0  0  0  0  0  0  0  0  0  0  0  0
    8.0620   20.0390   20.0900 C   0  0  0  0  0  0  0  0  0  0  0  0
    8.5810   18.7980   19.9660 C   0  0  0  0  0  0  0  0  0  0  0  0
   10.3480   17.6690   18.5970 C   0  0  0  0  0  0  0  0  0  0  0  0
   11.7200   17.7720   18.5740 C   0  0  0  0  0  0  0  0  0  0  0  0
   12.4960   16.6740   18.2340 C   0  0  0  0  0  0  0  0  0  0  0  0
   11.9060   15.4580   17.9420 C   0  0  0  0  0  0  0  0  0  0  0  0
   12.7580   14.2640   17.6000 C   0  0  0  0  0  0  0  0  0  0  0  0
   10.5190   15.3640   17.9660 C   0  0  0  0  0  0  0  0  0  0  0  0
    9.8670   14.0490   17.6630 C   0  0  0  0  0  0  0  0  0  0  0  0
    9.7460   16.4690   18.3110 C   0  0  0  0  0  0  0  0  0  0  0  0
    5.8070   22.0960   20.0780 C   0  0  0  0  0  0  0  0  0  0  0  0
    4.7400   22.0090   20.9500 C   0  0  0  0  0  0  0  0  0  0  0  0
  2  4  1  0  0  0  0
  4  5  1  0  0  0  0
  5  7  1  0  0  0  0
  7  9  2  0  0  0  0
  3 11  1  0  0  0  0
  9 11  1  0  0  0  0
  3 12  1  0  0  0  0
  6 12  2  0  0  0  0
  6 13  1  0  0  0  0
  8 13  2  0  0  0  0
  8 14  1  0  0  0  0
 10 14  1  0  0  0  0
 12 15  1  0  0  0  0
 14 15  2  0  0  0  0
 15 16  1  0  0  0  0
 10 17  1  0  0  0  0
 16 17  2  0  0  0  0
 10 18  1  0  0  0  0
 18 19  1  0  0  0  0
 19 20  2  0  0  0  0
 20 21  1  0  0  0  0
 21 22  1  0  0  0  0
 21 23  2  0  0  0  0
 23 24  1  0  0  0  0
 18 25  2  0  0  0  0
 23 25  1  0  0  0  0
 11 26  2  0  0  0  0
  1 27  1  0  0  0  0
  5 27  2  0  0  0  0
 26 27  1  0  0  0  0
M  END
$$$$
