9B6E
  PyMOL3.1          3D                             0

 52 56  0  0  0  0  0  0  0  0999 V2000
  176.6810  159.0170  208.5670 C   0  0  0  0  0  0  0  0  0  0  0  0
  177.9410  158.9610  207.6830 C   0  0  0  0  0  0  0  0  0  0  0  0
  178.1580  159.9700  206.7520 C   0  0  0  0  0  0  0  0  0  0  0  0
  179.2850  159.9450  205.9430 C   0  0  0  0  0  0  0  0  0  0  0  0
  180.2000  158.9100  206.0610 C   0  0  0  0  0  0  0  0  0  0  0  0
  179.9870  157.9020  206.9880 C   0  0  0  0  0  0  0  0  0  0  0  0
  178.8640  157.9260  207.8020 C   0  0  0  0  0  0  0  0  0  0  0  0
  178.6680  156.7810  208.8100 C   0  0  0  0  0  0  0  0  0  0  0  0
  178.2120  155.5470  208.3360 C   0  0  0  0  0  0  0  0  0  0  0  0
  178.0240  154.4800  209.2080 C   0  0  0  0  0  0  0  0  0  0  0  0
  177.5220  153.1110  208.7230 C   0  0  0  0  0  0  0  0  0  0  0  0
  178.3090  154.7110  210.5360 C   0  0  0  0  0  0  0  0  0  0  0  0
  178.2340  153.8650  211.7050 N   0  0  0  0  0  0  0  0  0  0  0  0
  178.6060  154.5560  212.7130 C   0  0  0  0  0  0  0  0  0  0  0  0
  178.6440  154.0200  213.9360 C   0  0  0  0  0  0  0  0  0  0  0  0
  178.4540  152.7860  214.1490 N   0  0  0  0  0  0  0  0  0  0  0  0
  178.2780  152.5310  215.3140 O   0  0  0  0  0  0  0  0  0  0  0  0
  178.3230  153.6650  216.1910 C   0  0  0  0  0  0  0  0  0  0  0  0
  177.0120  153.7930  216.9810 C   0  0  0  0  0  0  0  0  0  0  0  0
  176.8590  152.5770  217.9080 C   0  0  0  0  0  0  0  0  0  0  0  0
  178.0550  152.5200  218.8730 C   0  0  0  0  0  0  0  0  0  0  0  0
  179.3480  152.3470  218.0620 C   0  0  0  0  0  0  0  0  0  0  0  0
  179.5300  153.5600  217.1350 C   0  0  0  0  0  0  0  0  0  0  0  0
  178.5000  154.8370  215.2180 C   0  0  0  0  0  0  0  0  0  0  0  0
  178.9510  155.7810  212.4710 N   0  0  0  0  0  0  0  0  0  0  0  0
  178.7520  155.8980  211.0130 C   0  0  0  0  0  0  0  0  0  0  0  0
  178.9490  156.9720  210.1640 C   0  0  0  0  0  0  0  0  0  0  0  0
  175.9790  157.8970  208.4340 F   0  0  0  0  0  0  0  0  0  0  0  0
  178.5390  152.2570  208.6850 F   0  0  0  0  0  0  0  0  0  0  0  0
  176.5980  152.6590  209.5640 F   0  0  0  0  0  0  0  0  0  0  0  0
  176.9970  153.2330  207.5090 F   0  0  0  0  0  0  0  0  0  0  0  0
  177.0290  159.1830  209.8380 F   0  0  0  0  0  0  0  0  0  0  0  0
  175.9270  160.0440  208.1890 F   0  0  0  0  0  0  0  0  0  0  0  0
  177.4430  160.7850  206.6560 H   0  0  0  0  0  0  0  0  0  0  0  0
  179.4500  160.7380  205.2160 H   0  0  0  0  0  0  0  0  0  0  0  0
  181.0850  158.8880  205.4270 H   0  0  0  0  0  0  0  0  0  0  0  0
  180.7060  157.0890  207.0800 H   0  0  0  0  0  0  0  0  0  0  0  0
  178.0030  155.4200  207.2750 H   0  0  0  0  0  0  0  0  0  0  0  0
  177.9390  152.9010  211.7210 H   0  0  0  0  0  0  0  0  0  0  0  0
  177.0360  154.7040  217.5780 H   0  0  0  0  0  0  0  0  0  0  0  0
  176.1720  153.8310  216.2890 H   0  0  0  0  0  0  0  0  0  0  0  0
  176.8370  151.6680  217.3090 H   0  0  0  0  0  0  0  0  0  0  0  0
  175.9360  152.6630  218.4780 H   0  0  0  0  0  0  0  0  0  0  0  0
  177.9360  151.6790  219.5530 H   0  0  0  0  0  0  0  0  0  0  0  0
  178.1060  153.4470  219.4410 H   0  0  0  0  0  0  0  0  0  0  0  0
  180.1960  152.2740  218.7400 H   0  0  0  0  0  0  0  0  0  0  0  0
  179.2780  151.4420  217.4610 H   0  0  0  0  0  0  0  0  0  0  0  0
  179.6030  154.4660  217.7340 H   0  0  0  0  0  0  0  0  0  0  0  0
  180.4380  153.4350  216.5480 H   0  0  0  0  0  0  0  0  0  0  0  0
  177.6170  155.4730  215.1900 H   0  0  0  0  0  0  0  0  0  0  0  0
  179.4050  155.4040  215.4290 H   0  0  0  0  0  0  0  0  0  0  0  0
  179.3040  157.9300  210.5370 H   0  0  0  0  0  0  0  0  0  0  0  0
  1  2  1  0  0  0  0
  2  3  2  0  0  0  0
  3  4  1  0  0  0  0
  4  5  2  0  0  0  0
  5  6  1  0  0  0  0
  2  7  1  0  0  0  0
  6  7  2  0  0  0  0
  7  8  1  0  0  0  0
  8  9  2  0  0  0  0
  9 10  1  0  0  0  0
 10 11  1  0  0  0  0
 10 12  2  0  0  0  0
 12 13  1  0  0  0  0
 13 14  1  0  0  0  0
 14 15  1  0  0  0  0
 15 16  2  0  0  0  0
 16 17  1  0  0  0  0
 17 18  1  0  0  0  0
 18 19  1  0  0  0  0
 19 20  1  0  0  0  0
 20 21  1  0  0  0  0
 21 22  1  0  0  0  0
 18 23  1  0  0  0  0
 22 23  1  0  0  0  0
 15 24  1  0  0  0  0
 18 24  1  0  0  0  0
 14 25  2  0  0  0  0
 12 26  1  0  0  0  0
 25 26  1  0  0  0  0
  8 27  1  0  0  0  0
 26 27  2  0  0  0  0
  1 28  1  0  0  0  0
 11 29  1  0  0  0  0
 11 30  1  0  0  0  0
 11 31  1  0  0  0  0
  1 32  1  0  0  0  0
  1 33  1  0  0  0  0
  3 34  1  0  0  0  0
  4 35  1  0  0  0  0
  5 36  1  0  0  0  0
  6 37  1  0  0  0  0
  9 38  1  0  0  0  0
 13 39  1  0  0  0  0
 19 40  1  0  0  0  0
 19 41  1  0  0  0  0
 20 42  1  0  0  0  0
 20 43  1  0  0  0  0
 21 44  1  0  0  0  0
 21 45  1  0  0  0  0
 22 46  1  0  0  0  0
 22 47  1  0  0  0  0
 23 48  1  0  0  0  0
 23 49  1  0  0  0  0
 24 50  1  0  0  0  0
 24 51  1  0  0  0  0
 27 52  1  0  0  0  0
M  END
$$$$
