9B6E
  PyMOL3.1          3D                             0

 52 56  0  0  0  0  0  0  0  0999 V2000
  168.9210  186.5800  208.5670 C   0  0  0  0  0  0  0  0  0  0  0  0
  167.6610  186.6360  207.6830 C   0  0  0  0  0  0  0  0  0  0  0  0
  167.4440  185.6270  206.7520 C   0  0  0  0  0  0  0  0  0  0  0  0
  166.3170  185.6520  205.9430 C   0  0  0  0  0  0  0  0  0  0  0  0
  165.4020  186.6870  206.0610 C   0  0  0  0  0  0  0  0  0  0  0  0
  165.6150  187.6950  206.9880 C   0  0  0  0  0  0  0  0  0  0  0  0
  166.7380  187.6710  207.8020 C   0  0  0  0  0  0  0  0  0  0  0  0
  166.9340  188.8160  208.8100 C   0  0  0  0  0  0  0  0  0  0  0  0
  167.3900  190.0500  208.3360 C   0  0  0  0  0  0  0  0  0  0  0  0
  167.5780  191.1170  209.2090 C   0  0  0  0  0  0  0  0  0  0  0  0
  168.0800  192.4860  208.7240 C   0  0  0  0  0  0  0  0  0  0  0  0
  167.2930  190.8860  210.5370 C   0  0  0  0  0  0  0  0  0  0  0  0
  167.3680  191.7310  211.7060 N   0  0  0  0  0  0  0  0  0  0  0  0
  166.9960  191.0400  212.7140 C   0  0  0  0  0  0  0  0  0  0  0  0
  166.9580  191.5760  213.9370 C   0  0  0  0  0  0  0  0  0  0  0  0
  167.1480  192.8100  214.1500 N   0  0  0  0  0  0  0  0  0  0  0  0
  167.3240  193.0650  215.3150 O   0  0  0  0  0  0  0  0  0  0  0  0
  167.2790  191.9310  216.1920 C   0  0  0  0  0  0  0  0  0  0  0  0
  168.5900  191.8030  216.9820 C   0  0  0  0  0  0  0  0  0  0  0  0
  168.7430  193.0190  217.9090 C   0  0  0  0  0  0  0  0  0  0  0  0
  167.5470  193.0760  218.8740 C   0  0  0  0  0  0  0  0  0  0  0  0
  166.2540  193.2490  218.0630 C   0  0  0  0  0  0  0  0  0  0  0  0
  166.0720  192.0360  217.1360 C   0  0  0  0  0  0  0  0  0  0  0  0
  167.1020  190.7590  215.2190 C   0  0  0  0  0  0  0  0  0  0  0  0
  166.6510  189.8150  212.4710 N   0  0  0  0  0  0  0  0  0  0  0  0
  166.8500  189.6980  211.0130 C   0  0  0  0  0  0  0  0  0  0  0  0
  166.6530  188.6240  210.1640 C   0  0  0  0  0  0  0  0  0  0  0  0
  169.6230  187.7000  208.4340 F   0  0  0  0  0  0  0  0  0  0  0  0
  167.0620  193.3400  208.6860 F   0  0  0  0  0  0  0  0  0  0  0  0
  169.0040  192.9380  209.5650 F   0  0  0  0  0  0  0  0  0  0  0  0
  168.6050  192.3640  207.5100 F   0  0  0  0  0  0  0  0  0  0  0  0
  168.5730  186.4140  209.8380 F   0  0  0  0  0  0  0  0  0  0  0  0
  169.6750  185.5530  208.1890 F   0  0  0  0  0  0  0  0  0  0  0  0
  168.1590  184.8120  206.6560 H   0  0  0  0  0  0  0  0  0  0  0  0
  166.1520  184.8590  205.2160 H   0  0  0  0  0  0  0  0  0  0  0  0
  164.5170  186.7090  205.4270 H   0  0  0  0  0  0  0  0  0  0  0  0
  164.8960  188.5080  207.0800 H   0  0  0  0  0  0  0  0  0  0  0  0
  167.5990  190.1770  207.2750 H   0  0  0  0  0  0  0  0  0  0  0  0
  167.6630  192.6950  211.7220 H   0  0  0  0  0  0  0  0  0  0  0  0
  168.5660  190.8920  217.5780 H   0  0  0  0  0  0  0  0  0  0  0  0
  169.4300  191.7650  216.2890 H   0  0  0  0  0  0  0  0  0  0  0  0
  168.7650  193.9280  217.3100 H   0  0  0  0  0  0  0  0  0  0  0  0
  169.6660  192.9330  218.4790 H   0  0  0  0  0  0  0  0  0  0  0  0
  167.6660  193.9170  219.5540 H   0  0  0  0  0  0  0  0  0  0  0  0
  167.4960  192.1490  219.4420 H   0  0  0  0  0  0  0  0  0  0  0  0
  165.4060  193.3220  218.7410 H   0  0  0  0  0  0  0  0  0  0  0  0
  166.3240  194.1540  217.4620 H   0  0  0  0  0  0  0  0  0  0  0  0
  165.9990  191.1300  217.7350 H   0  0  0  0  0  0  0  0  0  0  0  0
  165.1640  192.1610  216.5490 H   0  0  0  0  0  0  0  0  0  0  0  0
  167.9850  190.1230  215.1900 H   0  0  0  0  0  0  0  0  0  0  0  0
  166.1970  190.1920  215.4290 H   0  0  0  0  0  0  0  0  0  0  0  0
  166.2980  187.6660  210.5370 H   0  0  0  0  0  0  0  0  0  0  0  0
  1  2  1  0  0  0  0
  2  3  2  0  0  0  0
  3  4  1  0  0  0  0
  4  5  2  0  0  0  0
  5  6  1  0  0  0  0
  2  7  1  0  0  0  0
  6  7  2  0  0  0  0
  7  8  1  0  0  0  0
  8  9  2  0  0  0  0
  9 10  1  0  0  0  0
 10 11  1  0  0  0  0
 10 12  2  0  0  0  0
 12 13  1  0  0  0  0
 13 14  1  0  0  0  0
 14 15  1  0  0  0  0
 15 16  2  0  0  0  0
 16 17  1  0  0  0  0
 17 18  1  0  0  0  0
 18 19  1  0  0  0  0
 19 20  1  0  0  0  0
 20 21  1  0  0  0  0
 21 22  1  0  0  0  0
 18 23  1  0  0  0  0
 22 23  1  0  0  0  0
 15 24  1  0  0  0  0
 18 24  1  0  0  0  0
 14 25  2  0  0  0  0
 12 26  1  0  0  0  0
 25 26  1  0  0  0  0
  8 27  1  0  0  0  0
 26 27  2  0  0  0  0
  1 28  1  0  0  0  0
 11 29  1  0  0  0  0
 11 30  1  0  0  0  0
 11 31  1  0  0  0  0
  1 32  1  0  0  0  0
  1 33  1  0  0  0  0
  3 34  1  0  0  0  0
  4 35  1  0  0  0  0
  5 36  1  0  0  0  0
  6 37  1  0  0  0  0
  9 38  1  0  0  0  0
 13 39  1  0  0  0  0
 19 40  1  0  0  0  0
 19 41  1  0  0  0  0
 20 42  1  0  0  0  0
 20 43  1  0  0  0  0
 21 44  1  0  0  0  0
 21 45  1  0  0  0  0
 22 46  1  0  0  0  0
 22 47  1  0  0  0  0
 23 48  1  0  0  0  0
 23 49  1  0  0  0  0
 24 50  1  0  0  0  0
 24 51  1  0  0  0  0
 27 52  1  0  0  0  0
M  END
$$$$
