9B6E
  PyMOL3.1          3D                             0

 52 56  0  0  0  0  0  0  0  0999 V2000
  159.0200  168.9210  208.5670 C   0  0  0  0  0  0  0  0  0  0  0  0
  158.9640  167.6610  207.6830 C   0  0  0  0  0  0  0  0  0  0  0  0
  159.9730  167.4440  206.7520 C   0  0  0  0  0  0  0  0  0  0  0  0
  159.9480  166.3170  205.9430 C   0  0  0  0  0  0  0  0  0  0  0  0
  158.9130  165.4020  206.0610 C   0  0  0  0  0  0  0  0  0  0  0  0
  157.9050  165.6150  206.9880 C   0  0  0  0  0  0  0  0  0  0  0  0
  157.9290  166.7380  207.8020 C   0  0  0  0  0  0  0  0  0  0  0  0
  156.7840  166.9340  208.8100 C   0  0  0  0  0  0  0  0  0  0  0  0
  155.5500  167.3900  208.3360 C   0  0  0  0  0  0  0  0  0  0  0  0
  154.4830  167.5780  209.2080 C   0  0  0  0  0  0  0  0  0  0  0  0
  153.1140  168.0800  208.7230 C   0  0  0  0  0  0  0  0  0  0  0  0
  154.7140  167.2930  210.5360 C   0  0  0  0  0  0  0  0  0  0  0  0
  153.8680  167.3680  211.7050 N   0  0  0  0  0  0  0  0  0  0  0  0
  154.5590  166.9960  212.7130 C   0  0  0  0  0  0  0  0  0  0  0  0
  154.0230  166.9580  213.9360 C   0  0  0  0  0  0  0  0  0  0  0  0
  152.7890  167.1480  214.1490 N   0  0  0  0  0  0  0  0  0  0  0  0
  152.5340  167.3240  215.3140 O   0  0  0  0  0  0  0  0  0  0  0  0
  153.6690  167.2790  216.1910 C   0  0  0  0  0  0  0  0  0  0  0  0
  153.7960  168.5900  216.9810 C   0  0  0  0  0  0  0  0  0  0  0  0
  152.5810  168.7430  217.9080 C   0  0  0  0  0  0  0  0  0  0  0  0
  152.5240  167.5470  218.8730 C   0  0  0  0  0  0  0  0  0  0  0  0
  152.3510  166.2540  218.0620 C   0  0  0  0  0  0  0  0  0  0  0  0
  153.5640  166.0720  217.1350 C   0  0  0  0  0  0  0  0  0  0  0  0
  154.8400  167.1020  215.2180 C   0  0  0  0  0  0  0  0  0  0  0  0
  155.7840  166.6510  212.4710 N   0  0  0  0  0  0  0  0  0  0  0  0
  155.9010  166.8500  211.0130 C   0  0  0  0  0  0  0  0  0  0  0  0
  156.9750  166.6530  210.1640 C   0  0  0  0  0  0  0  0  0  0  0  0
  157.9000  169.6230  208.4340 F   0  0  0  0  0  0  0  0  0  0  0  0
  152.2600  167.0620  208.6850 F   0  0  0  0  0  0  0  0  0  0  0  0
  152.6620  169.0040  209.5640 F   0  0  0  0  0  0  0  0  0  0  0  0
  153.2360  168.6040  207.5090 F   0  0  0  0  0  0  0  0  0  0  0  0
  159.1860  168.5730  209.8380 F   0  0  0  0  0  0  0  0  0  0  0  0
  160.0470  169.6750  208.1890 F   0  0  0  0  0  0  0  0  0  0  0  0
  160.7880  168.1590  206.6560 H   0  0  0  0  0  0  0  0  0  0  0  0
  160.7410  166.1520  205.2160 H   0  0  0  0  0  0  0  0  0  0  0  0
  158.8910  164.5170  205.4270 H   0  0  0  0  0  0  0  0  0  0  0  0
  157.0920  164.8960  207.0800 H   0  0  0  0  0  0  0  0  0  0  0  0
  155.4230  167.5990  207.2750 H   0  0  0  0  0  0  0  0  0  0  0  0
  152.9040  167.6630  211.7210 H   0  0  0  0  0  0  0  0  0  0  0  0
  154.7080  168.5660  217.5780 H   0  0  0  0  0  0  0  0  0  0  0  0
  153.8340  169.4300  216.2890 H   0  0  0  0  0  0  0  0  0  0  0  0
  151.6720  168.7650  217.3090 H   0  0  0  0  0  0  0  0  0  0  0  0
  152.6670  169.6660  218.4780 H   0  0  0  0  0  0  0  0  0  0  0  0
  151.6830  167.6660  219.5530 H   0  0  0  0  0  0  0  0  0  0  0  0
  153.4510  167.4960  219.4410 H   0  0  0  0  0  0  0  0  0  0  0  0
  152.2780  165.4060  218.7400 H   0  0  0  0  0  0  0  0  0  0  0  0
  151.4460  166.3240  217.4610 H   0  0  0  0  0  0  0  0  0  0  0  0
  154.4700  165.9990  217.7340 H   0  0  0  0  0  0  0  0  0  0  0  0
  153.4390  165.1640  216.5480 H   0  0  0  0  0  0  0  0  0  0  0  0
  155.4760  167.9850  215.1900 H   0  0  0  0  0  0  0  0  0  0  0  0
  155.4080  166.1970  215.4290 H   0  0  0  0  0  0  0  0  0  0  0  0
  157.9330  166.2980  210.5370 H   0  0  0  0  0  0  0  0  0  0  0  0
  1  2  1  0  0  0  0
  2  3  2  0  0  0  0
  3  4  1  0  0  0  0
  4  5  2  0  0  0  0
  5  6  1  0  0  0  0
  2  7  1  0  0  0  0
  6  7  2  0  0  0  0
  7  8  1  0  0  0  0
  8  9  2  0  0  0  0
  9 10  1  0  0  0  0
 10 11  1  0  0  0  0
 10 12  2  0  0  0  0
 12 13  1  0  0  0  0
 13 14  1  0  0  0  0
 14 15  1  0  0  0  0
 15 16  2  0  0  0  0
 16 17  1  0  0  0  0
 17 18  1  0  0  0  0
 18 19  1  0  0  0  0
 19 20  1  0  0  0  0
 20 21  1  0  0  0  0
 21 22  1  0  0  0  0
 18 23  1  0  0  0  0
 22 23  1  0  0  0  0
 15 24  1  0  0  0  0
 18 24  1  0  0  0  0
 14 25  2  0  0  0  0
 12 26  1  0  0  0  0
 25 26  1  0  0  0  0
  8 27  1  0  0  0  0
 26 27  2  0  0  0  0
  1 28  1  0  0  0  0
 11 29  1  0  0  0  0
 11 30  1  0  0  0  0
 11 31  1  0  0  0  0
  1 32  1  0  0  0  0
  1 33  1  0  0  0  0
  3 34  1  0  0  0  0
  4 35  1  0  0  0  0
  5 36  1  0  0  0  0
  6 37  1  0  0  0  0
  9 38  1  0  0  0  0
 13 39  1  0  0  0  0
 19 40  1  0  0  0  0
 19 41  1  0  0  0  0
 20 42  1  0  0  0  0
 20 43  1  0  0  0  0
 21 44  1  0  0  0  0
 21 45  1  0  0  0  0
 22 46  1  0  0  0  0
 22 47  1  0  0  0  0
 23 48  1  0  0  0  0
 23 49  1  0  0  0  0
 24 50  1  0  0  0  0
 24 51  1  0  0  0  0
 27 52  1  0  0  0  0
M  END
$$$$
