9B6E
  PyMOL3.1          3D                             0

 52 56  0  0  0  0  0  0  0  0999 V2000
  186.5800  176.6790  208.5670 C   0  0  0  0  0  0  0  0  0  0  0  0
  186.6360  177.9390  207.6830 C   0  0  0  0  0  0  0  0  0  0  0  0
  185.6270  178.1560  206.7520 C   0  0  0  0  0  0  0  0  0  0  0  0
  185.6520  179.2830  205.9430 C   0  0  0  0  0  0  0  0  0  0  0  0
  186.6870  180.1980  206.0610 C   0  0  0  0  0  0  0  0  0  0  0  0
  187.6950  179.9850  206.9880 C   0  0  0  0  0  0  0  0  0  0  0  0
  187.6710  178.8620  207.8020 C   0  0  0  0  0  0  0  0  0  0  0  0
  188.8160  178.6660  208.8100 C   0  0  0  0  0  0  0  0  0  0  0  0
  190.0500  178.2100  208.3360 C   0  0  0  0  0  0  0  0  0  0  0  0
  191.1170  178.0220  209.2080 C   0  0  0  0  0  0  0  0  0  0  0  0
  192.4860  177.5210  208.7230 C   0  0  0  0  0  0  0  0  0  0  0  0
  190.8860  178.3070  210.5360 C   0  0  0  0  0  0  0  0  0  0  0  0
  191.7320  178.2320  211.7050 N   0  0  0  0  0  0  0  0  0  0  0  0
  191.0410  178.6040  212.7130 C   0  0  0  0  0  0  0  0  0  0  0  0
  191.5760  178.6420  213.9360 C   0  0  0  0  0  0  0  0  0  0  0  0
  192.8100  178.4520  214.1490 N   0  0  0  0  0  0  0  0  0  0  0  0
  193.0650  178.2760  215.3140 O   0  0  0  0  0  0  0  0  0  0  0  0
  191.9310  178.3210  216.1910 C   0  0  0  0  0  0  0  0  0  0  0  0
  191.8030  177.0100  216.9810 C   0  0  0  0  0  0  0  0  0  0  0  0
  193.0190  176.8570  217.9080 C   0  0  0  0  0  0  0  0  0  0  0  0
  193.0760  178.0530  218.8730 C   0  0  0  0  0  0  0  0  0  0  0  0
  193.2490  179.3460  218.0620 C   0  0  0  0  0  0  0  0  0  0  0  0
  192.0360  179.5280  217.1350 C   0  0  0  0  0  0  0  0  0  0  0  0
  190.7590  178.4980  215.2180 C   0  0  0  0  0  0  0  0  0  0  0  0
  189.8160  178.9490  212.4710 N   0  0  0  0  0  0  0  0  0  0  0  0
  189.6990  178.7500  211.0130 C   0  0  0  0  0  0  0  0  0  0  0  0
  188.6250  178.9470  210.1640 C   0  0  0  0  0  0  0  0  0  0  0  0
  187.7000  175.9770  208.4340 F   0  0  0  0  0  0  0  0  0  0  0  0
  193.3400  178.5380  208.6850 F   0  0  0  0  0  0  0  0  0  0  0  0
  192.9380  176.5970  209.5640 F   0  0  0  0  0  0  0  0  0  0  0  0
  192.3640  176.9960  207.5090 F   0  0  0  0  0  0  0  0  0  0  0  0
  186.4140  177.0270  209.8380 F   0  0  0  0  0  0  0  0  0  0  0  0
  185.5530  175.9250  208.1890 F   0  0  0  0  0  0  0  0  0  0  0  0
  184.8120  177.4410  206.6560 H   0  0  0  0  0  0  0  0  0  0  0  0
  184.8590  179.4480  205.2160 H   0  0  0  0  0  0  0  0  0  0  0  0
  186.7090  181.0830  205.4270 H   0  0  0  0  0  0  0  0  0  0  0  0
  188.5080  180.7040  207.0800 H   0  0  0  0  0  0  0  0  0  0  0  0
  190.1770  178.0010  207.2750 H   0  0  0  0  0  0  0  0  0  0  0  0
  192.6960  177.9370  211.7210 H   0  0  0  0  0  0  0  0  0  0  0  0
  190.8920  177.0340  217.5780 H   0  0  0  0  0  0  0  0  0  0  0  0
  191.7650  176.1700  216.2890 H   0  0  0  0  0  0  0  0  0  0  0  0
  193.9280  176.8350  217.3090 H   0  0  0  0  0  0  0  0  0  0  0  0
  192.9330  175.9340  218.4780 H   0  0  0  0  0  0  0  0  0  0  0  0
  193.9170  177.9340  219.5530 H   0  0  0  0  0  0  0  0  0  0  0  0
  192.1490  178.1040  219.4410 H   0  0  0  0  0  0  0  0  0  0  0  0
  193.3220  180.1940  218.7410 H   0  0  0  0  0  0  0  0  0  0  0  0
  194.1540  179.2760  217.4620 H   0  0  0  0  0  0  0  0  0  0  0  0
  191.1300  179.6010  217.7340 H   0  0  0  0  0  0  0  0  0  0  0  0
  192.1610  180.4360  216.5480 H   0  0  0  0  0  0  0  0  0  0  0  0
  190.1230  177.6150  215.1900 H   0  0  0  0  0  0  0  0  0  0  0  0
  190.1920  179.4030  215.4290 H   0  0  0  0  0  0  0  0  0  0  0  0
  187.6670  179.3020  210.5370 H   0  0  0  0  0  0  0  0  0  0  0  0
  1  2  1  0  0  0  0
  2  3  2  0  0  0  0
  3  4  1  0  0  0  0
  4  5  2  0  0  0  0
  5  6  1  0  0  0  0
  2  7  1  0  0  0  0
  6  7  2  0  0  0  0
  7  8  1  0  0  0  0
  8  9  2  0  0  0  0
  9 10  1  0  0  0  0
 10 11  1  0  0  0  0
 10 12  2  0  0  0  0
 12 13  1  0  0  0  0
 13 14  1  0  0  0  0
 14 15  1  0  0  0  0
 15 16  2  0  0  0  0
 16 17  1  0  0  0  0
 17 18  1  0  0  0  0
 18 19  1  0  0  0  0
 19 20  1  0  0  0  0
 20 21  1  0  0  0  0
 21 22  1  0  0  0  0
 18 23  1  0  0  0  0
 22 23  1  0  0  0  0
 15 24  1  0  0  0  0
 18 24  1  0  0  0  0
 14 25  2  0  0  0  0
 12 26  1  0  0  0  0
 25 26  1  0  0  0  0
  8 27  1  0  0  0  0
 26 27  2  0  0  0  0
  1 28  1  0  0  0  0
 11 29  1  0  0  0  0
 11 30  1  0  0  0  0
 11 31  1  0  0  0  0
  1 32  1  0  0  0  0
  1 33  1  0  0  0  0
  3 34  1  0  0  0  0
  4 35  1  0  0  0  0
  5 36  1  0  0  0  0
  6 37  1  0  0  0  0
  9 38  1  0  0  0  0
 13 39  1  0  0  0  0
 19 40  1  0  0  0  0
 19 41  1  0  0  0  0
 20 42  1  0  0  0  0
 20 43  1  0  0  0  0
 21 44  1  0  0  0  0
 21 45  1  0  0  0  0
 22 46  1  0  0  0  0
 22 47  1  0  0  0  0
 23 48  1  0  0  0  0
 23 49  1  0  0  0  0
 24 50  1  0  0  0  0
 24 51  1  0  0  0  0
 27 52  1  0  0  0  0
M  END
$$$$
