8XJM
  PyMOL3.1          3D                             0

 28 29  0  0  0  0  0  0  0  0999 V2000
   96.3540  126.1380  119.8410 O   0  0  0  0  0  0  0  0  0  0  0  0
   97.1670  125.1040  120.3480 C   0  0  0  0  0  0  0  0  0  0  0  0
   98.6360  125.1640  119.7750 C   0  0  0  0  0  0  0  0  0  0  0  0
   98.4900  124.5850  118.3820 C   0  0  0  0  0  0  0  0  0  0  0  0
   97.4250  123.4440  118.5760 C   0  0  0  0  0  0  0  0  0  0  0  0
   96.5900  123.7730  119.8580 C   0  0  0  0  0  0  0  0  0  0  0  0
   96.5500  123.3800  117.5120 O   0  0  0  0  0  0  0  0  0  0  0  0
   99.8840  124.1190  117.7960 C   0  0  0  0  0  0  0  0  0  0  0  0
   99.7910  123.0500  116.6990 C   0  0  0  0  0  0  0  0  0  0  0  0
  101.1270  122.6390  115.9530 C   0  0  0  0  0  0  0  0  0  0  0  0
  102.2120  123.7910  115.8720 C   0  0  0  0  0  0  0  0  0  0  0  0
  101.9980  124.9410  114.8150 C   0  0  0  0  0  0  0  0  0  0  0  0
  103.2310  125.8800  114.5090 C   0  0  0  0  0  0  0  0  0  0  0  0
  104.5600  125.4260  114.6680 C   0  0  0  0  0  0  0  0  0  0  0  0
  105.6760  126.2530  114.3950 C   0  0  0  0  0  0  0  0  0  0  0  0
  105.4850  127.5720  113.9490 C   0  0  0  0  0  0  0  0  0  0  0  0
  104.1730  128.0520  113.7780 C   0  0  0  0  0  0  0  0  0  0  0  0
  103.0660  127.2140  114.0560 C   0  0  0  0  0  0  0  0  0  0  0  0
  100.8050  122.1960  114.6660 O   0  0  0  0  0  0  0  0  0  0  0  0
   99.3160  126.5710  119.7280 C   0  0  0  0  0  0  0  0  0  0  0  0
  100.1460  126.8700  120.8750 C   0  0  0  0  0  0  0  0  0  0  0  0
   99.9670  127.9660  121.6340 C   0  0  0  0  0  0  0  0  0  0  0  0
   98.8990  128.9620  121.3720 C   0  0  0  0  0  0  0  0  0  0  0  0
   99.3570  130.3260  120.7430 C   0  0  0  0  0  0  0  0  0  0  0  0
   98.2400  131.2940  120.2770 C   0  0  0  0  0  0  0  0  0  0  0  0
   97.2410  131.7720  121.4130 C   0  0  0  0  0  0  0  0  0  0  0  0
   95.9920  131.7260  121.2030 O   0  0  0  0  0  0  0  0  0  0  0  0
   97.7090  132.1910  122.5120 O   0  0  0  0  0  0  0  0  0  0  0  0
  1  2  1  0  0  0  0
  2  3  1  0  0  0  0
  3  4  1  0  0  0  0
  4  5  1  0  0  0  0
  2  6  1  0  0  0  0
  5  6  1  0  0  0  0
  5  7  1  0  0  0  0
  4  8  1  0  0  0  0
  8  9  1  0  0  0  0
  9 10  1  0  0  0  0
 10 11  1  0  0  0  0
 11 12  1  0  0  0  0
 12 13  1  0  0  0  0
 13 14  1  0  0  0  0
 14 15  2  0  0  0  0
 15 16  1  0  0  0  0
 16 17  2  0  0  0  0
 13 18  2  0  0  0  0
 17 18  1  0  0  0  0
 10 19  1  0  0  0  0
  3 20  1  0  0  0  0
 20 21  1  0  0  0  0
 21 22  2  0  0  0  0
 22 23  1  0  0  0  0
 23 24  1  0  0  0  0
 24 25  1  0  0  0  0
 25 26  1  0  0  0  0
 26 27  1  0  0  0  0
 26 28  2  0  0  0  0
M  END
$$$$
