8QUC
  PyMOL3.1          3D                             0

 25 27  0  0  0  0  0  0  0  0999 V2000
  135.4950  162.4570  157.8670 C   0  0  0  0  0  0  0  0  0  0  0  0
  132.0460  162.0100  156.8420 N   0  0  0  0  0  0  0  0  0  0  0  0
  130.1350  161.9120  155.6180 O   0  0  0  0  0  0  0  0  0  0  0  0
  134.3700  162.6880  156.8860 C   0  0  0  0  0  0  0  0  0  0  0  0
  132.2120  161.3160  154.7440 N   0  0  0  0  0  0  0  0  0  0  0  0
  131.1450  161.0040  149.3750 O   0  0  0  0  0  0  0  0  0  0  0  0
  133.4110  161.5090  156.7510 C   0  0  0  0  0  0  0  0  0  0  0  0
  131.8440  159.9760  151.3160 N   0  0  0  0  0  0  0  0  0  0  0  0
  133.6720  158.2440  146.3590 O   0  0  0  0  0  0  0  0  0  0  0  0
  131.3270  161.7710  155.7450 C   0  0  0  0  0  0  0  0  0  0  0  0
  134.2910  160.3200  154.8180 O   0  0  0  0  0  0  0  0  0  0  0  0
  131.9260  161.2530  153.3390 C   0  0  0  0  0  0  0  0  0  0  0  0
  131.4650  162.3650  152.6680 C   0  0  0  0  0  0  0  0  0  0  0  0
  131.2020  162.2720  151.3170 C   0  0  0  0  0  0  0  0  0  0  0  0
  131.4120  161.0560  150.7090 C   0  0  0  0  0  0  0  0  0  0  0  0
  131.2990  159.8280  148.6280 C   0  0  0  0  0  0  0  0  0  0  0  0
  130.3000  158.8860  148.6490 C   0  0  0  0  0  0  0  0  0  0  0  0
  130.4520  157.7330  147.9010 C   0  0  0  0  0  0  0  0  0  0  0  0
  131.5850  157.5140  147.1290 C   0  0  0  0  0  0  0  0  0  0  0  0
  131.7450  156.2720  146.3170 C   0  0  0  0  0  0  0  0  0  0  0  0
  132.5830  158.5040  147.1310 C   0  0  0  0  0  0  0  0  0  0  0  0
  134.8750  158.9420  146.6490 C   0  0  0  0  0  0  0  0  0  0  0  0
  132.4390  159.6590  147.8730 C   0  0  0  0  0  0  0  0  0  0  0  0
  132.1050  160.0730  152.6310 C   0  0  0  0  0  0  0  0  0  0  0  0
  133.4120  160.9590  155.3390 C   0  0  0  0  0  0  0  0  0  0  0  0
  1  4  1  0  0  0  0
  2  7  1  0  0  0  0
  4  7  1  0  0  0  0
  2 10  1  0  0  0  0
  3 10  2  0  0  0  0
  5 10  1  0  0  0  0
  5 12  1  0  0  0  0
 12 13  1  0  0  0  0
 13 14  2  0  0  0  0
  6 15  1  0  0  0  0
  8 15  2  0  0  0  0
 14 15  1  0  0  0  0
  6 16  1  0  0  0  0
 16 17  1  0  0  0  0
 17 18  2  0  0  0  0
 18 19  1  0  0  0  0
 19 20  1  0  0  0  0
  9 21  1  0  0  0  0
 19 21  2  0  0  0  0
  9 22  1  0  0  0  0
 16 23  2  0  0  0  0
 21 23  1  0  0  0  0
  8 24  1  0  0  0  0
 12 24  2  0  0  0  0
  5 25  1  0  0  0  0
  7 25  1  0  0  0  0
 11 25  2  0  0  0  0
M  END
$$$$
