7T4V
  PyMOL3.1          3D                             0

 70 76  0  0  0  0  0  0  0  0999 V2000
   12.2020   12.8180  -19.0600 N   0  0  0  0  0  0  0  0  0  0  0  0
   11.1520   15.2640  -22.8880 C   0  0  0  0  0  0  0  0  0  0  0  0
   10.1730   14.2400  -22.7480 O   0  0  0  0  0  0  0  0  0  0  0  0
   13.1160   10.7450  -25.8910 Cl  0  0  0  0  0  0  0  0  0  0  0  0
   15.6720   15.3900  -26.7470 Cl  0  0  0  0  0  0  0  0  0  0  0  0
   12.5780   14.7730  -22.6240 C   0  0  0  0  0  0  0  0  0  0  0  0
   12.4830   13.8030  -21.5610 O   0  0  0  0  0  0  0  0  0  0  0  0
   13.7100   13.2950  -20.9780 C   0  0  0  0  0  0  0  0  0  0  0  0
    5.7030   14.2130  -16.8960 O   0  0  0  0  0  0  0  0  0  0  0  0
   14.4230   14.3680  -20.1840 C   0  0  0  0  0  0  0  0  0  0  0  0
    6.3060   13.8190  -14.7940 O   0  0  0  0  0  0  0  0  0  0  0  0
   13.4540   14.9830  -19.1820 C   0  0  0  0  0  0  0  0  0  0  0  0
   12.8500   13.9300  -18.2800 C   0  0  0  0  0  0  0  0  0  0  0  0
   11.5770   11.8050  -18.1150 C   0  0  0  0  0  0  0  0  0  0  0  0
   10.2910   12.2820  -17.4850 C   0  0  0  0  0  0  0  0  0  0  0  0
    9.1310   12.1570  -18.2510 C   0  0  0  0  0  0  0  0  0  0  0  0
    7.9090   12.6010  -17.7780 C   0  0  0  0  0  0  0  0  0  0  0  0
    7.8160   13.1940  -16.5230 C   0  0  0  0  0  0  0  0  0  0  0  0
    8.9660   13.2870  -15.7420 C   0  0  0  0  0  0  0  0  0  0  0  0
   10.2050   12.8330  -16.1910 C   0  0  0  0  0  0  0  0  0  0  0  0
   11.3830   12.8860  -15.2520 C   0  0  0  0  0  0  0  0  0  0  0  0
    6.5140   13.7880  -16.0360 C   0  0  0  0  0  0  0  0  0  0  0  0
   13.1920   12.2060  -20.0380 C   0  0  0  0  0  0  0  0  0  0  0  0
   12.6980   11.0580  -20.8930 C   0  0  0  0  0  0  0  0  0  0  0  0
   11.3880   10.9770  -21.3530 C   0  0  0  0  0  0  0  0  0  0  0  0
   10.9980    9.9510  -22.1970 C   0  0  0  0  0  0  0  0  0  0  0  0
   11.9070    8.9910  -22.5900 C   0  0  0  0  0  0  0  0  0  0  0  0
   13.2090    9.0570  -22.1350 C   0  0  0  0  0  0  0  0  0  0  0  0
   13.6020   10.0820  -21.2900 C   0  0  0  0  0  0  0  0  0  0  0  0
   13.1580   14.1940  -23.8870 C   0  0  0  0  0  0  0  0  0  0  0  0
   12.8880   12.8870  -24.2740 C   0  0  0  0  0  0  0  0  0  0  0  0
   13.5340   12.3510  -25.3700 C   0  0  0  0  0  0  0  0  0  0  0  0
   14.4500   13.0750  -26.1050 C   0  0  0  0  0  0  0  0  0  0  0  0
   14.6700   14.3860  -25.7360 C   0  0  0  0  0  0  0  0  0  0  0  0
   14.0490   14.9500  -24.6390 C   0  0  0  0  0  0  0  0  0  0  0  0
   34.3500    9.0590    6.6510 N   0  0  0  0  0  0  0  0  0  0  0  0
   35.7310   10.1810    2.1280 C   0  0  0  0  0  0  0  0  0  0  0  0
   36.4010   11.0770    3.0080 O   0  0  0  0  0  0  0  0  0  0  0  0
   36.2960    5.1060   -1.0650 Cl  0  0  0  0  0  0  0  0  0  0  0  0
   31.4770    6.7800    0.5840 Cl  0  0  0  0  0  0  0  0  0  0  0  0
   35.8150    8.7540    2.6340 C   0  0  0  0  0  0  0  0  0  0  0  0
   35.0890    8.7760    3.8850 O   0  0  0  0  0  0  0  0  0  0  0  0
   35.0940    7.5920    4.7150 C   0  0  0  0  0  0  0  0  0  0  0  0
   34.1100   14.7200   11.2830 O   0  0  0  0  0  0  0  0  0  0  0  0
   36.4410    7.4140    5.3800 C   0  0  0  0  0  0  0  0  0  0  0  0
   35.9230   13.5490   11.8350 O   0  0  0  0  0  0  0  0  0  0  0  0
   36.7850    8.6600    6.1840 C   0  0  0  0  0  0  0  0  0  0  0  0
   35.7350    8.9380    7.2360 C   0  0  0  0  0  0  0  0  0  0  0  0
   33.2960    9.2850    7.7360 C   0  0  0  0  0  0  0  0  0  0  0  0
   33.6130   10.3780    8.7270 C   0  0  0  0  0  0  0  0  0  0  0  0
   33.3330   11.6930    8.3550 C   0  0  0  0  0  0  0  0  0  0  0  0
   33.6880   12.7570    9.1660 C   0  0  0  0  0  0  0  0  0  0  0  0
   34.3470   12.5330   10.3710 C   0  0  0  0  0  0  0  0  0  0  0  0
   34.6040   11.2180   10.7560 C   0  0  0  0  0  0  0  0  0  0  0  0
   34.2250   10.1300    9.9710 C   0  0  0  0  0  0  0  0  0  0  0  0
   34.4080    8.7370   10.5140 C   0  0  0  0  0  0  0  0  0  0  0  0
   34.8240   13.6850   11.2280 C   0  0  0  0  0  0  0  0  0  0  0  0
   34.0230    7.8620    5.7730 C   0  0  0  0  0  0  0  0  0  0  0  0
   32.6090    7.9360    5.1560 C   0  0  0  0  0  0  0  0  0  0  0  0
   32.1430    9.0830    4.5200 C   0  0  0  0  0  0  0  0  0  0  0  0
   30.8300    9.1660    4.0850 C   0  0  0  0  0  0  0  0  0  0  0  0
   29.9620    8.1090    4.2860 C   0  0  0  0  0  0  0  0  0  0  0  0
   30.4200    6.9560    4.8970 C   0  0  0  0  0  0  0  0  0  0  0  0
   31.7380    6.8640    5.3160 C   0  0  0  0  0  0  0  0  0  0  0  0
   35.1790    7.8630    1.5980 C   0  0  0  0  0  0  0  0  0  0  0  0
   35.9510    7.0100    0.8130 C   0  0  0  0  0  0  0  0  0  0  0  0
   35.3270    6.0790    0.0050 C   0  0  0  0  0  0  0  0  0  0  0  0
   33.9560    5.9520   -0.0420 C   0  0  0  0  0  0  0  0  0  0  0  0
   33.2090    6.8470    0.6910 C   0  0  0  0  0  0  0  0  0  0  0  0
   33.7950    7.8010    1.5000 C   0  0  0  0  0  0  0  0  0  0  0  0
  2  3  1  0  0  0  0
  2  6  1  0  0  0  0
  6  7  1  0  0  0  0
  7  8  1  0  0  0  0
  8 10  1  0  0  0  0
 10 12  1  0  0  0  0
  1 13  1  0  0  0  0
 12 13  1  0  0  0  0
  1 14  1  0  0  0  0
 14 15  1  0  0  0  0
 15 16  1  0  0  0  0
 16 17  2  0  0  0  0
 17 18  1  0  0  0  0
 18 19  2  0  0  0  0
 15 20  2  0  0  0  0
 19 20  1  0  0  0  0
 20 21  1  0  0  0  0
  9 22  2  0  0  0  0
 11 22  1  0  0  0  0
 18 22  1  0  0  0  0
  1 23  1  0  0  0  0
  8 23  1  0  0  0  0
 23 24  1  0  0  0  0
 24 25  2  0  0  0  0
 25 26  1  0  0  0  0
 26 27  2  0  0  0  0
 27 28  1  0  0  0  0
 24 29  1  0  0  0  0
 28 29  2  0  0  0  0
  6 30  1  0  0  0  0
 30 31  1  0  0  0  0
  4 32  1  0  0  0  0
 31 32  2  0  0  0  0
 32 33  1  0  0  0  0
  5 34  1  0  0  0  0
 33 34  2  0  0  0  0
 30 35  2  0  0  0  0
 34 35  1  0  0  0  0
 37 38  1  0  0  0  0
 37 41  1  0  0  0  0
 41 42  1  0  0  0  0
 42 43  1  0  0  0  0
 43 45  1  0  0  0  0
 45 47  1  0  0  0  0
 36 48  1  0  0  0  0
 47 48  1  0  0  0  0
 36 49  1  0  0  0  0
 49 50  1  0  0  0  0
 50 51  1  0  0  0  0
 51 52  2  0  0  0  0
 52 53  1  0  0  0  0
 53 54  2  0  0  0  0
 50 55  2  0  0  0  0
 54 55  1  0  0  0  0
 55 56  1  0  0  0  0
 44 57  2  0  0  0  0
 46 57  1  0  0  0  0
 53 57  1  0  0  0  0
 36 58  1  0  0  0  0
 43 58  1  0  0  0  0
 58 59  1  0  0  0  0
 59 60  2  0  0  0  0
 60 61  1  0  0  0  0
 61 62  2  0  0  0  0
 62 63  1  0  0  0  0
 59 64  1  0  0  0  0
 63 64  2  0  0  0  0
 41 65  1  0  0  0  0
 65 66  1  0  0  0  0
 39 67  1  0  0  0  0
 66 67  2  0  0  0  0
 67 68  1  0  0  0  0
 40 69  1  0  0  0  0
 68 69  2  0  0  0  0
 65 70  2  0  0  0  0
 69 70  1  0  0  0  0
M  END
$$$$
