7T4V
  PyMOL3.1          3D                             0

 35 38  0  0  0  0  0  0  0  0999 V2000
   12.2020   12.8180  -19.0600 N   0  0  0  0  0  0  0  0  0  0  0  0
   11.1520   15.2640  -22.8880 C   0  0  0  0  0  0  0  0  0  0  0  0
   10.1730   14.2400  -22.7480 O   0  0  0  0  0  0  0  0  0  0  0  0
   13.1160   10.7450  -25.8910 Cl  0  0  0  0  0  0  0  0  0  0  0  0
   15.6720   15.3900  -26.7470 Cl  0  0  0  0  0  0  0  0  0  0  0  0
   12.5780   14.7730  -22.6240 C   0  0  0  0  0  0  0  0  0  0  0  0
   12.4830   13.8030  -21.5610 O   0  0  0  0  0  0  0  0  0  0  0  0
   13.7100   13.2950  -20.9780 C   0  0  0  0  0  0  0  0  0  0  0  0
    5.7030   14.2130  -16.8960 O   0  0  0  0  0  0  0  0  0  0  0  0
   14.4230   14.3680  -20.1840 C   0  0  0  0  0  0  0  0  0  0  0  0
    6.3060   13.8190  -14.7940 O   0  0  0  0  0  0  0  0  0  0  0  0
   13.4540   14.9830  -19.1820 C   0  0  0  0  0  0  0  0  0  0  0  0
   12.8500   13.9300  -18.2800 C   0  0  0  0  0  0  0  0  0  0  0  0
   11.5770   11.8050  -18.1150 C   0  0  0  0  0  0  0  0  0  0  0  0
   10.2910   12.2820  -17.4850 C   0  0  0  0  0  0  0  0  0  0  0  0
    9.1310   12.1570  -18.2510 C   0  0  0  0  0  0  0  0  0  0  0  0
    7.9090   12.6010  -17.7780 C   0  0  0  0  0  0  0  0  0  0  0  0
    7.8160   13.1940  -16.5230 C   0  0  0  0  0  0  0  0  0  0  0  0
    8.9660   13.2870  -15.7420 C   0  0  0  0  0  0  0  0  0  0  0  0
   10.2050   12.8330  -16.1910 C   0  0  0  0  0  0  0  0  0  0  0  0
   11.3830   12.8860  -15.2520 C   0  0  0  0  0  0  0  0  0  0  0  0
    6.5140   13.7880  -16.0360 C   0  0  0  0  0  0  0  0  0  0  0  0
   13.1920   12.2060  -20.0380 C   0  0  0  0  0  0  0  0  0  0  0  0
   12.6980   11.0580  -20.8930 C   0  0  0  0  0  0  0  0  0  0  0  0
   11.3880   10.9770  -21.3530 C   0  0  0  0  0  0  0  0  0  0  0  0
   10.9980    9.9510  -22.1970 C   0  0  0  0  0  0  0  0  0  0  0  0
   11.9070    8.9910  -22.5900 C   0  0  0  0  0  0  0  0  0  0  0  0
   13.2090    9.0570  -22.1350 C   0  0  0  0  0  0  0  0  0  0  0  0
   13.6020   10.0820  -21.2900 C   0  0  0  0  0  0  0  0  0  0  0  0
   13.1580   14.1940  -23.8870 C   0  0  0  0  0  0  0  0  0  0  0  0
   12.8880   12.8870  -24.2740 C   0  0  0  0  0  0  0  0  0  0  0  0
   13.5340   12.3510  -25.3700 C   0  0  0  0  0  0  0  0  0  0  0  0
   14.4500   13.0750  -26.1050 C   0  0  0  0  0  0  0  0  0  0  0  0
   14.6700   14.3860  -25.7360 C   0  0  0  0  0  0  0  0  0  0  0  0
   14.0490   14.9500  -24.6390 C   0  0  0  0  0  0  0  0  0  0  0  0
  1 13  1  0  0  0  0
  1 14  1  0  0  0  0
  1 23  1  0  0  0  0
  2  3  1  0  0  0  0
  2  6  1  0  0  0  0
  5 34  1  0  0  0  0
  6  7  1  0  0  0  0
  7  8  1  0  0  0  0
  8 10  1  0  0  0  0
  8 23  1  0  0  0  0
 10 12  1  0  0  0  0
 12 13  1  0  0  0  0
 14 15  1  0  0  0  0
 15 16  4  0  0  0  0
 15 20  4  0  0  0  0
 16 17  4  0  0  0  0
 17 18  4  0  0  0  0
 18 22  1  0  0  0  0
 18 19  4  0  0  0  0
 19 20  4  0  0  0  0
 20 21  1  0  0  0  0
  9 22  4  0  0  0  0
 11 22  4  0  0  0  0
 23 24  1  0  0  0  0
 24 25  4  0  0  0  0
 24 29  4  0  0  0  0
 25 26  4  0  0  0  0
 26 27  4  0  0  0  0
 27 28  4  0  0  0  0
 28 29  4  0  0  0  0
  6 30  1  0  0  0  0
 30 31  4  0  0  0  0
  4 32  1  0  0  0  0
 31 32  4  0  0  0  0
 32 33  4  0  0  0  0
 33 34  4  0  0  0  0
 34 35  4  0  0  0  0
 30 35  4  0  0  0  0
M  END
$$$$
