7T4V
  PyMOL3.1          3D                             0

 35 38  0  0  0  0  0  0  0  0999 V2000
   34.3500    9.0590    6.6510 N   0  0  0  0  0  0  0  0  0  0  0  0
   35.7310   10.1810    2.1280 C   0  0  0  0  0  0  0  0  0  0  0  0
   36.4010   11.0770    3.0080 O   0  0  0  0  0  0  0  0  0  0  0  0
   36.2960    5.1060   -1.0650 Cl  0  0  0  0  0  0  0  0  0  0  0  0
   31.4770    6.7800    0.5840 Cl  0  0  0  0  0  0  0  0  0  0  0  0
   35.8150    8.7540    2.6340 C   0  0  0  0  0  0  0  0  0  0  0  0
   35.0890    8.7760    3.8850 O   0  0  0  0  0  0  0  0  0  0  0  0
   35.0940    7.5920    4.7150 C   0  0  0  0  0  0  0  0  0  0  0  0
   34.1100   14.7200   11.2830 O   0  0  0  0  0  0  0  0  0  0  0  0
   36.4410    7.4140    5.3800 C   0  0  0  0  0  0  0  0  0  0  0  0
   35.9230   13.5490   11.8350 O   0  0  0  0  0  0  0  0  0  0  0  0
   36.7850    8.6600    6.1840 C   0  0  0  0  0  0  0  0  0  0  0  0
   35.7350    8.9380    7.2360 C   0  0  0  0  0  0  0  0  0  0  0  0
   33.2960    9.2850    7.7360 C   0  0  0  0  0  0  0  0  0  0  0  0
   33.6130   10.3780    8.7270 C   0  0  0  0  0  0  0  0  0  0  0  0
   33.3330   11.6930    8.3550 C   0  0  0  0  0  0  0  0  0  0  0  0
   33.6880   12.7570    9.1660 C   0  0  0  0  0  0  0  0  0  0  0  0
   34.3470   12.5330   10.3710 C   0  0  0  0  0  0  0  0  0  0  0  0
   34.6040   11.2180   10.7560 C   0  0  0  0  0  0  0  0  0  0  0  0
   34.2250   10.1300    9.9710 C   0  0  0  0  0  0  0  0  0  0  0  0
   34.4080    8.7370   10.5140 C   0  0  0  0  0  0  0  0  0  0  0  0
   34.8240   13.6850   11.2280 C   0  0  0  0  0  0  0  0  0  0  0  0
   34.0230    7.8620    5.7730 C   0  0  0  0  0  0  0  0  0  0  0  0
   32.6090    7.9360    5.1560 C   0  0  0  0  0  0  0  0  0  0  0  0
   32.1430    9.0830    4.5200 C   0  0  0  0  0  0  0  0  0  0  0  0
   30.8300    9.1660    4.0850 C   0  0  0  0  0  0  0  0  0  0  0  0
   29.9620    8.1090    4.2860 C   0  0  0  0  0  0  0  0  0  0  0  0
   30.4200    6.9560    4.8970 C   0  0  0  0  0  0  0  0  0  0  0  0
   31.7380    6.8640    5.3160 C   0  0  0  0  0  0  0  0  0  0  0  0
   35.1790    7.8630    1.5980 C   0  0  0  0  0  0  0  0  0  0  0  0
   35.9510    7.0100    0.8130 C   0  0  0  0  0  0  0  0  0  0  0  0
   35.3270    6.0790    0.0050 C   0  0  0  0  0  0  0  0  0  0  0  0
   33.9560    5.9520   -0.0420 C   0  0  0  0  0  0  0  0  0  0  0  0
   33.2090    6.8470    0.6910 C   0  0  0  0  0  0  0  0  0  0  0  0
   33.7950    7.8010    1.5000 C   0  0  0  0  0  0  0  0  0  0  0  0
  2  3  1  0  0  0  0
  2  6  1  0  0  0  0
  6  7  1  0  0  0  0
  7  8  1  0  0  0  0
  8 10  1  0  0  0  0
 10 12  1  0  0  0  0
  1 13  1  0  0  0  0
 12 13  1  0  0  0  0
  1 14  1  0  0  0  0
 14 15  1  0  0  0  0
 15 16  1  0  0  0  0
 16 17  2  0  0  0  0
 17 18  1  0  0  0  0
 18 19  2  0  0  0  0
 15 20  2  0  0  0  0
 19 20  1  0  0  0  0
 20 21  1  0  0  0  0
  9 22  2  0  0  0  0
 11 22  1  0  0  0  0
 18 22  1  0  0  0  0
  1 23  1  0  0  0  0
  8 23  1  0  0  0  0
 23 24  1  0  0  0  0
 24 25  2  0  0  0  0
 25 26  1  0  0  0  0
 26 27  2  0  0  0  0
 27 28  1  0  0  0  0
 24 29  1  0  0  0  0
 28 29  2  0  0  0  0
  6 30  1  0  0  0  0
 30 31  1  0  0  0  0
  4 32  1  0  0  0  0
 31 32  2  0  0  0  0
 32 33  1  0  0  0  0
  5 34  1  0  0  0  0
 33 34  2  0  0  0  0
 30 35  2  0  0  0  0
 34 35  1  0  0  0  0
M  END
$$$$
