7DXF
  PyMOL3.1          3D                             0

 25 28  0  0  0  0  0  0  0  0999 V2000
  140.5660  124.1550  160.1880 N   0  0  0  0  0  0  0  0  0  0  0  0
  145.7460  126.1460  162.1530 C   0  0  0  0  0  0  0  0  0  0  0  0
  144.7800  125.9090  163.2010 O   0  0  0  0  0  0  0  0  0  0  0  0
  143.6230  125.4550  162.6400 C   0  0  0  0  0  0  0  0  0  0  0  0
  140.7910  125.3880  158.1480 N   0  0  0  0  0  0  0  0  0  0  0  0
  140.1260  126.4850  154.9410 O   0  0  0  0  0  0  0  0  0  0  0  0
  142.4180  125.0930  163.2190 C   0  0  0  0  0  0  0  0  0  0  0  0
  141.6630  127.5460  156.1590 N   0  0  0  0  0  0  0  0  0  0  0  0
  145.0850  125.7950  160.9180 O   0  0  0  0  0  0  0  0  0  0  0  0
  141.4110  124.6600  162.3510 C   0  0  0  0  0  0  0  0  0  0  0  0
  141.5890  124.5920  160.9590 C   0  0  0  0  0  0  0  0  0  0  0  0
  142.8040  124.9470  160.3640 C   0  0  0  0  0  0  0  0  0  0  0  0
  143.8150  125.3830  161.2020 C   0  0  0  0  0  0  0  0  0  0  0  0
  140.0570  124.8860  159.1670 C   0  0  0  0  0  0  0  0  0  0  0  0
  140.0270  126.0840  157.2410 C   0  0  0  0  0  0  0  0  0  0  0  0
  138.6490  126.1270  157.5370 C   0  0  0  0  0  0  0  0  0  0  0  0
  140.6120  126.7340  156.0330 C   0  0  0  0  0  0  0  0  0  0  0  0
  141.6860  128.5990  157.1790 C   0  0  0  0  0  0  0  0  0  0  0  0
  143.1120  128.8820  157.6720 C   0  0  0  0  0  0  0  0  0  0  0  0
  144.0900  129.1150  156.5210 C   0  0  0  0  0  0  0  0  0  0  0  0
  143.5030  128.7460  155.1680 C   0  0  0  0  0  0  0  0  0  0  0  0
  142.8070  127.3950  155.2620 C   0  0  0  0  0  0  0  0  0  0  0  0
  144.6050  128.7000  154.1220 C   0  0  0  0  0  0  0  0  0  0  0  0
  143.6290  127.8110  158.6300 C   0  0  0  0  0  0  0  0  0  0  0  0
  138.3830  125.2530  159.0130 S   0  0  0  0  0  0  0  0  0  0  0  0
  2  3  1  0  0  0  0
  3  4  1  0  0  0  0
  4  7  1  0  0  0  0
  2  9  1  0  0  0  0
  7 10  2  0  0  0  0
  1 11  1  0  0  0  0
 10 11  1  0  0  0  0
 11 12  2  0  0  0  0
  4 13  2  0  0  0  0
  9 13  1  0  0  0  0
 12 13  1  0  0  0  0
  1 14  1  0  0  0  0
  5 14  2  0  0  0  0
  5 15  1  0  0  0  0
 15 16  2  0  0  0  0
  6 17  2  0  0  0  0
  8 17  1  0  0  0  0
 15 17  1  0  0  0  0
  8 18  1  0  0  0  0
 18 19  1  0  0  0  0
 19 20  1  0  0  0  0
 20 21  1  0  0  0  0
  8 22  1  0  0  0  0
 21 22  1  0  0  0  0
 21 23  1  0  0  0  0
 19 24  1  0  0  0  0
 14 25  1  0  0  0  0
 16 25  1  0  0  0  0
M  END
$$$$
