7DXF
  PyMOL3.1          3D                             0

 25 28  0  0  0  0  0  0  0  0999 V2000
  152.0240  168.4470  160.1880 N   0  0  0  0  0  0  0  0  0  0  0  0
  146.8430  166.4560  162.1530 C   0  0  0  0  0  0  0  0  0  0  0  0
  147.8090  166.6930  163.2010 O   0  0  0  0  0  0  0  0  0  0  0  0
  148.9670  167.1480  162.6400 C   0  0  0  0  0  0  0  0  0  0  0  0
  151.7990  167.2140  158.1480 N   0  0  0  0  0  0  0  0  0  0  0  0
  152.4630  166.1170  154.9410 O   0  0  0  0  0  0  0  0  0  0  0  0
  150.1710  167.5090  163.2190 C   0  0  0  0  0  0  0  0  0  0  0  0
  150.9270  165.0560  156.1590 N   0  0  0  0  0  0  0  0  0  0  0  0
  147.5050  166.8070  160.9180 O   0  0  0  0  0  0  0  0  0  0  0  0
  151.1780  167.9420  162.3510 C   0  0  0  0  0  0  0  0  0  0  0  0
  151.0000  168.0100  160.9590 C   0  0  0  0  0  0  0  0  0  0  0  0
  149.7850  167.6550  160.3640 C   0  0  0  0  0  0  0  0  0  0  0  0
  148.7750  167.2200  161.2020 C   0  0  0  0  0  0  0  0  0  0  0  0
  152.5320  167.7160  159.1670 C   0  0  0  0  0  0  0  0  0  0  0  0
  152.5630  166.5180  157.2410 C   0  0  0  0  0  0  0  0  0  0  0  0
  153.9400  166.4750  157.5370 C   0  0  0  0  0  0  0  0  0  0  0  0
  151.9780  165.8680  156.0330 C   0  0  0  0  0  0  0  0  0  0  0  0
  150.9040  164.0030  157.1790 C   0  0  0  0  0  0  0  0  0  0  0  0
  149.4780  163.7200  157.6720 C   0  0  0  0  0  0  0  0  0  0  0  0
  148.5000  163.4870  156.5210 C   0  0  0  0  0  0  0  0  0  0  0  0
  149.0870  163.8560  155.1680 C   0  0  0  0  0  0  0  0  0  0  0  0
  149.7830  165.2070  155.2620 C   0  0  0  0  0  0  0  0  0  0  0  0
  147.9850  163.9020  154.1220 C   0  0  0  0  0  0  0  0  0  0  0  0
  148.9600  164.7920  158.6300 C   0  0  0  0  0  0  0  0  0  0  0  0
  154.2070  167.3490  159.0130 S   0  0  0  0  0  0  0  0  0  0  0  0
  2  3  1  0  0  0  0
  3  4  1  0  0  0  0
  4  7  1  0  0  0  0
  2  9  1  0  0  0  0
  7 10  2  0  0  0  0
  1 11  1  0  0  0  0
 10 11  1  0  0  0  0
 11 12  2  0  0  0  0
  4 13  2  0  0  0  0
  9 13  1  0  0  0  0
 12 13  1  0  0  0  0
  1 14  1  0  0  0  0
  5 14  2  0  0  0  0
  5 15  1  0  0  0  0
 15 16  2  0  0  0  0
  6 17  2  0  0  0  0
  8 17  1  0  0  0  0
 15 17  1  0  0  0  0
  8 18  1  0  0  0  0
 18 19  1  0  0  0  0
 19 20  1  0  0  0  0
 20 21  1  0  0  0  0
  8 22  1  0  0  0  0
 21 22  1  0  0  0  0
 21 23  1  0  0  0  0
 19 24  1  0  0  0  0
 14 25  1  0  0  0  0
 16 25  1  0  0  0  0
M  END
$$$$
