7VUU
  PyMOL3.1          3D                             0

 12 13  0  0  0  0  0  0  0  0999 V2000
   25.1114   23.2522   13.7591 N   0  0  0  0  0  0  0  0  0  0  0  0
   25.8717   24.0648   12.9736 N   0  0  0  0  0  0  0  0  0  0  0  0
   24.3255   25.3028   13.9141 C   0  0  0  0  0  0  0  0  0  0  0  0
   25.3746   25.3254   13.0867 N   0  0  0  0  0  0  0  0  0  0  0  0
   23.4706   26.3079   14.3613 C   0  0  0  0  0  0  0  0  0  0  0  0
   22.4454   25.9857   15.2370 C   0  0  0  0  0  0  0  0  0  0  0  0
   22.2622   24.6725   15.6757 C   0  0  0  0  0  0  0  0  0  0  0  0
   23.1202   23.6764   15.2305 C   0  0  0  0  0  0  0  0  0  0  0  0
   24.1567   23.9994   14.3398 C   0  0  0  0  0  0  0  0  0  0  0  0
   21.6751   28.1128   15.5791 O   0  0  0  0  0  0  0  0  0  0  0  0
   20.3628   26.4756   16.3964 O   0  0  0  0  0  0  0  0  0  0  0  0
   21.5026   26.9548   15.7402 N   0  0  0  0  0  0  0  0  0  0  0  0
  1  2  1  0  0  0  0
  2  4  2  0  0  0  0
  3  4  1  0  0  0  0
  3  5  1  0  0  0  0
  5  6  2  0  0  0  0
  6  7  1  0  0  0  0
  7  8  2  0  0  0  0
  1  9  1  0  0  0  0
  3  9  2  0  0  0  0
  8  9  1  0  0  0  0
  6 12  1  0  0  0  0
 10 12  2  0  0  0  0
 11 12  1  0  0  0  0
M  END
$$$$
