8XZI
  PyMOL3.1          3D                             0

 64 66  0  0  0  0  0  0  0  0999 V2000
   85.5620  120.4090  107.0420 S   0  0  0  0  0  0  0  0  0  0  0  0
   90.6100  126.2810  112.9870 O   0  0  0  0  0  0  0  0  0  0  0  0
   89.7330  130.9540  116.2860 O   0  0  0  0  0  0  0  0  0  0  0  0
   91.4410  129.8220  115.5450 O   0  0  0  0  0  0  0  0  0  0  0  0
   86.6340  121.6870  110.7890 N   0  0  0  0  0  0  0  0  0  0  0  0
   88.6150  122.0840  109.9260 N   0  0  0  0  0  0  0  0  0  0  0  0
   88.7590  127.6170  113.1150 N   0  0  0  0  0  0  0  0  0  0  0  0
   85.3520  121.0700  111.0740 C   0  0  0  0  0  0  0  0  0  0  0  0
   84.2230  122.0680  110.8370 C   0  0  0  0  0  0  0  0  0  0  0  0
   85.3250  120.6110  112.5300 C   0  0  0  0  0  0  0  0  0  0  0  0
   87.1180  122.7710  111.3620 C   0  0  0  0  0  0  0  0  0  0  0  0
   87.5520  121.2450  109.8920 C   0  0  0  0  0  0  0  0  0  0  0  0
   89.4970  128.7710  113.5890 C   0  0  0  0  0  0  0  0  0  0  0  0
   89.0000  130.0300  112.8820 C   0  0  0  0  0  0  0  0  0  0  0  0
   89.2250  129.9270  111.3750 C   0  0  0  0  0  0  0  0  0  0  0  0
   88.3640  123.0220  110.8190 C   0  0  0  0  0  0  0  0  0  0  0  0
   87.4170  120.0140  109.0010 C   0  0  0  0  0  0  0  0  0  0  0  0
   86.5260  123.7130  112.4620 C   0  0  0  0  0  0  0  0  0  0  0  0
   89.2530  128.9110  115.0890 C   0  0  0  0  0  0  0  0  0  0  0  0
   88.6460  125.1680  112.3500 C   0  0  0  0  0  0  0  0  0  0  0  0
   89.2020  124.2560  111.2950 C   0  0  0  0  0  0  0  0  0  0  0  0
   82.9630  121.3120  110.4310 C   0  0  0  0  0  0  0  0  0  0  0  0
   86.5520  119.7550  112.8350 C   0  0  0  0  0  0  0  0  0  0  0  0
   87.3150  124.8980  112.9310 C   0  0  0  0  0  0  0  0  0  0  0  0
   89.4430  126.3720  112.8320 C   0  0  0  0  0  0  0  0  0  0  0  0
   90.6200  129.3750  111.0890 C   0  0  0  0  0  0  0  0  0  0  0  0
   89.0890  131.3120  110.7490 C   0  0  0  0  0  0  0  0  0  0  0  0
   86.9990  120.4610  107.6070 C   0  0  0  0  0  0  0  0  0  0  0  0
   90.1970  129.9570  115.6740 C   0  0  0  0  0  0  0  0  0  0  0  0
   87.8610  121.0120  106.5820 C   0  0  0  0  0  0  0  0  0  0  0  0
   86.9700  121.3300  105.3000 C   0  0  0  0  0  0  0  0  0  0  0  0
   85.6010  120.9640  105.5940 C   0  0  0  0  0  0  0  0  0  0  0  0
   87.7690  127.6800  112.9870 H   0  0  0  0  0  0  0  0  0  0  0  0
   85.2150  120.2140  110.4260 H   0  0  0  0  0  0  0  0  0  0  0  0
   84.5060  122.7530  110.0450 H   0  0  0  0  0  0  0  0  0  0  0  0
   84.0340  122.6260  111.7480 H   0  0  0  0  0  0  0  0  0  0  0  0
   84.4280  120.0270  112.7070 H   0  0  0  0  0  0  0  0  0  0  0  0
   85.3220  121.4790  113.1800 H   0  0  0  0  0  0  0  0  0  0  0  0
   90.5560  128.6320  113.4060 H   0  0  0  0  0  0  0  0  0  0  0  0
   87.9400  130.1550  113.0780 H   0  0  0  0  0  0  0  0  0  0  0  0
   89.5370  130.8900  113.2650 H   0  0  0  0  0  0  0  0  0  0  0  0
   88.4820  129.2650  110.9470 H   0  0  0  0  0  0  0  0  0  0  0  0
   86.6650  119.3490  109.4110 H   0  0  0  0  0  0  0  0  0  0  0  0
   88.3680  119.4970  108.9480 H   0  0  0  0  0  0  0  0  0  0  0  0
   85.5500  123.5090  112.8840 H   0  0  0  0  0  0  0  0  0  0  0  0
   88.2260  129.2170  115.2600 H   0  0  0  0  0  0  0  0  0  0  0  0
   89.4300  127.9560  115.5740 H   0  0  0  0  0  0  0  0  0  0  0  0
   90.1780  124.4490  110.8660 H   0  0  0  0  0  0  0  0  0  0  0  0
   82.3990  121.0450  111.3200 H   0  0  0  0  0  0  0  0  0  0  0  0
   83.2400  120.4100  109.8930 H   0  0  0  0  0  0  0  0  0  0  0  0
   82.3520  121.9430  109.7900 H   0  0  0  0  0  0  0  0  0  0  0  0
   86.2510  118.7170  112.9430 H   0  0  0  0  0  0  0  0  0  0  0  0
   87.0110  120.0960  113.7580 H   0  0  0  0  0  0  0  0  0  0  0  0
   87.2670  119.8400  112.0230 H   0  0  0  0  0  0  0  0  0  0  0  0
   86.9110  125.5540  113.6930 H   0  0  0  0  0  0  0  0  0  0  0  0
   90.9250  129.6620  110.0870 H   0  0  0  0  0  0  0  0  0  0  0  0
   90.6030  128.2920  111.1670 H   0  0  0  0  0  0  0  0  0  0  0  0
   91.3250  129.7800  111.8110 H   0  0  0  0  0  0  0  0  0  0  0  0
   89.5240  132.0530  111.4130 H   0  0  0  0  0  0  0  0  0  0  0  0
   89.6090  131.3310  109.7960 H   0  0  0  0  0  0  0  0  0  0  0  0
   88.0380  131.5370  110.5930 H   0  0  0  0  0  0  0  0  0  0  0  0
   88.9280  121.1770  106.6710 H   0  0  0  0  0  0  0  0  0  0  0  0
   87.3270  121.7500  104.3680 H   0  0  0  0  0  0  0  0  0  0  0  0
   84.7560  121.0590  104.9240 H   0  0  0  0  0  0  0  0  0  0  0  0
  5  8  1  0  0  0  0
  8  9  1  0  0  0  0
  8 10  1  0  0  0  0
  5 11  1  0  0  0  0
  5 12  1  0  0  0  0
  6 12  2  0  0  0  0
  7 13  1  0  0  0  0
 13 14  1  0  0  0  0
 14 15  1  0  0  0  0
  6 16  1  0  0  0  0
 11 16  1  0  0  0  0
 12 17  1  0  0  0  0
 11 18  2  0  0  0  0
 13 19  1  0  0  0  0
 16 21  2  0  0  0  0
 20 21  1  0  0  0  0
  9 22  1  0  0  0  0
 10 23  1  0  0  0  0
 18 24  1  0  0  0  0
 20 24  2  0  0  0  0
  2 25  2  0  0  0  0
  7 25  1  0  0  0  0
 20 25  1  0  0  0  0
 15 26  1  0  0  0  0
 15 27  1  0  0  0  0
  1 28  1  0  0  0  0
 17 28  1  0  0  0  0
  3 29  1  0  0  0  0
  4 29  2  0  0  0  0
 19 29  1  0  0  0  0
 28 30  2  0  0  0  0
 30 31  1  0  0  0  0
  1 32  1  0  0  0  0
 31 32  2  0  0  0  0
  7 33  1  0  0  0  0
  8 34  1  0  0  0  0
  9 35  1  0  0  0  0
  9 36  1  0  0  0  0
 10 37  1  0  0  0  0
 10 38  1  0  0  0  0
 13 39  1  0  0  0  0
 14 40  1  0  0  0  0
 14 41  1  0  0  0  0
 15 42  1  0  0  0  0
 17 43  1  0  0  0  0
 17 44  1  0  0  0  0
 18 45  1  0  0  0  0
 19 46  1  0  0  0  0
 19 47  1  0  0  0  0
 21 48  1  0  0  0  0
 22 49  1  0  0  0  0
 22 50  1  0  0  0  0
 22 51  1  0  0  0  0
 23 52  1  0  0  0  0
 23 53  1  0  0  0  0
 23 54  1  0  0  0  0
 24 55  1  0  0  0  0
 26 56  1  0  0  0  0
 26 57  1  0  0  0  0
 26 58  1  0  0  0  0
 27 59  1  0  0  0  0
 27 60  1  0  0  0  0
 27 61  1  0  0  0  0
 30 62  1  0  0  0  0
 31 63  1  0  0  0  0
 32 64  1  0  0  0  0
M  END
$$$$
