7SCF
  PyMOL3.1          3D                             0

 15 16  0  0  0  0  0  0  0  0999 V2000
  -30.5850   11.1000   20.6940 O   0  0  0  0  0  0  0  0  0  0  0  0
  -31.5160   11.9430   20.5470 C   0  0  0  0  0  0  0  0  0  0  0  0
  -32.3180   12.4570   21.7450 C   0  0  0  0  0  0  0  0  0  0  0  0
  -33.1370   11.4220   22.3290 N   0  0  0  0  0  0  0  0  0  0  0  0
  -32.7580   10.5760   23.3170 C   0  0  0  0  0  0  0  0  0  0  0  0
  -33.8280    9.7510   23.5990 C   0  0  0  0  0  0  0  0  0  0  0  0
  -34.8420   10.1030   22.7710 C   0  0  0  0  0  0  0  0  0  0  0  0
  -34.4120   11.1450   21.9890 C   0  0  0  0  0  0  0  0  0  0  0  0
  -31.4110   13.1000   22.7890 C   0  0  0  0  0  0  0  0  0  0  0  0
  -30.5260   14.1360   22.1010 C   0  0  0  0  0  0  0  0  0  0  0  0
  -30.9560   15.0860   21.2190 C   0  0  0  0  0  0  0  0  0  0  0  0
  -29.9110   15.7860   20.8410 N   0  0  0  0  0  0  0  0  0  0  0  0
  -28.8300   15.2850   21.4590 C   0  0  0  0  0  0  0  0  0  0  0  0
  -29.2250   14.2660   22.2430 N   0  0  0  0  0  0  0  0  0  0  0  0
  -31.7830   12.3900   19.4010 O   0  0  0  0  0  0  0  0  0  0  0  0
  1  2  1  0  0  0  0
  2  3  1  0  0  0  0
  3  4  1  0  0  0  0
  4  5  1  0  0  0  0
  5  6  2  0  0  0  0
  6  7  1  0  0  0  0
  4  8  1  0  0  0  0
  7  8  2  0  0  0  0
  3  9  1  0  0  0  0
  9 10  1  0  0  0  0
 10 11  2  0  0  0  0
 11 12  1  0  0  0  0
 12 13  2  0  0  0  0
 10 14  1  0  0  0  0
 13 14  1  0  0  0  0
  2 15  2  0  0  0  0
M  END
$$$$
