8XLR
  PyMOL3.1          3D                             0

 28 29  0  0  0  0  0  0  0  0999 V2000
  155.0680  174.8000  179.7010 C   0  0  0  0  0  0  0  0  0  0  0  0
  156.4980  174.5350  179.3260 C   0  0  0  0  0  0  0  0  0  0  0  0
  157.2470  174.6050  180.5130 O   0  0  0  0  0  0  0  0  0  0  0  0
  158.4160  175.2620  180.4310 C   0  0  0  0  0  0  0  0  0  0  0  0
  159.4290  174.9830  179.5060 C   0  0  0  0  0  0  0  0  0  0  0  0
  160.5880  175.7400  179.4930 C   0  0  0  0  0  0  0  0  0  0  0  0
  160.7380  176.7660  180.4180 C   0  0  0  0  0  0  0  0  0  0  0  0
  159.7340  177.0360  181.3430 C   0  0  0  0  0  0  0  0  0  0  0  0
  158.5620  176.2790  181.3350 C   0  0  0  0  0  0  0  0  0  0  0  0
  157.5580  176.5130  182.1740 O   0  0  0  0  0  0  0  0  0  0  0  0
  156.7310  177.6080  181.8650 C   0  0  0  0  0  0  0  0  0  0  0  0
  156.6770  178.5680  183.0960 C   0  0  0  0  0  0  0  0  0  0  0  0
  155.3760  179.1140  183.3550 N   0  0  0  0  0  0  0  0  0  0  0  0
  154.8270  178.7630  184.6740 C   0  0  0  0  0  0  0  0  0  0  0  0
  153.3270  179.1360  184.7520 C   0  0  0  0  0  0  0  0  0  0  0  0
  152.7980  180.0540  185.8150 C   0  0  0  0  0  0  0  0  0  0  0  0
  151.4630  180.0860  186.1450 C   0  0  0  0  0  0  0  0  0  0  0  0
  150.9630  180.9340  187.1150 C   0  0  0  0  0  0  0  0  0  0  0  0
  151.8030  181.8070  187.7650 C   0  0  0  0  0  0  0  0  0  0  0  0
  153.1450  181.8280  187.4480 C   0  0  0  0  0  0  0  0  0  0  0  0
  153.5710  180.9210  186.4840 C   0  0  0  0  0  0  0  0  0  0  0  0
  154.2590  182.7830  188.1290 S   0  0  0  0  0  0  0  0  0  0  0  0
  153.7730  183.4740  189.2130 O   0  0  0  0  0  0  0  0  0  0  0  0
  155.3790  181.9430  188.1480 O   0  0  0  0  0  0  0  0  0  0  0  0
  154.6480  184.0110  187.2130 N   0  0  0  0  0  0  0  0  0  0  0  0
  151.3090  182.6580  188.7500 O   0  0  0  0  0  0  0  0  0  0  0  0
  150.6520  183.8750  188.3880 C   0  0  0  0  0  0  0  0  0  0  0  0
  154.9610  177.2670  184.8330 C   0  0  0  0  0  0  0  0  0  0  0  0
  1  2  1  0  0  0  0
  2  3  1  0  0  0  0
  3  4  1  0  0  0  0
  4  5  2  0  0  0  0
  5  6  1  0  0  0  0
  6  7  2  0  0  0  0
  7  8  1  0  0  0  0
  4  9  1  0  0  0  0
  8  9  2  0  0  0  0
  9 10  1  0  0  0  0
 10 11  1  0  0  0  0
 11 12  1  0  0  0  0
 12 13  1  0  0  0  0
 13 14  1  0  0  0  0
 14 15  1  0  0  0  0
 15 16  1  0  0  0  0
 16 17  2  0  0  0  0
 17 18  1  0  0  0  0
 18 19  2  0  0  0  0
 19 20  1  0  0  0  0
 16 21  1  0  0  0  0
 20 21  2  0  0  0  0
 20 22  1  0  0  0  0
 22 23  2  0  0  0  0
 22 24  2  0  0  0  0
 22 25  1  0  0  0  0
 19 26  1  0  0  0  0
 26 27  1  0  0  0  0
 14 28  1  0  0  0  0
M  END
$$$$
