8R41
  PyMOL3.1          3D                             0

 25 27  0  0  0  0  0  0  0  0999 V2000
  -47.4640    9.3400    5.5080 C   0  0  0  0  0  0  0  0  0  0  0  0
  -48.8450    9.2450    5.5260 O   0  0  0  0  0  0  0  0  0  0  0  0
  -49.3820    8.8810    6.8010 C   0  0  0  0  0  0  0  0  0  0  0  0
  -50.8940    8.6120    6.6380 C   0  0  0  0  0  0  0  0  0  0  0  0
  -51.1630    7.1480    6.7270 N   0  0  0  0  0  0  0  0  0  0  0  0
  -52.6410    6.8920    6.6810 C   0  0  0  0  0  0  0  0  0  0  0  0
  -52.8640    5.4110    6.6090 C   0  0  0  0  0  0  0  0  0  0  0  0
  -54.1260    4.8480    7.2540 C   0  0  0  0  0  0  0  0  0  0  0  0
  -54.9970    5.8540    7.8180 N   0  0  0  0  0  0  0  0  0  0  0  0
  -54.2490    6.8020    8.6500 C   0  0  0  0  0  0  0  0  0  0  0  0
  -53.3250    7.6330    7.7930 C   0  0  0  0  0  0  0  0  0  0  0  0
  -56.3330    5.4280    8.1910 C   0  0  0  0  0  0  0  0  0  0  0  0
  -56.7100    4.1600    8.4200 N   0  0  0  0  0  0  0  0  0  0  0  0
  -58.0120    3.9720    8.7540 C   0  0  0  0  0  0  0  0  0  0  0  0
  -58.7940    5.1170    8.8140 C   0  0  0  0  0  0  0  0  0  0  0  0
  -57.7280    6.4280    8.4090 S   0  0  0  0  0  0  0  0  0  0  0  0
  -50.5490    6.5170    5.5720 C   0  0  0  0  0  0  0  0  0  0  0  0
  -51.1270    7.0500    4.2560 C   0  0  0  0  0  0  0  0  0  0  0  0
  -50.3820    6.4210    3.0270 C   0  0  0  0  0  0  0  0  0  0  0  0
  -50.4080    5.0430    2.8090 C   0  0  0  0  0  0  0  0  0  0  0  0
  -49.7360    4.4980    1.7190 C   0  0  0  0  0  0  0  0  0  0  0  0
  -49.0440    5.3280    0.8610 C   0  0  0  0  0  0  0  0  0  0  0  0
  -49.0210    6.6970    1.0900 C   0  0  0  0  0  0  0  0  0  0  0  0
  -49.6890    7.2420    2.1750 C   0  0  0  0  0  0  0  0  0  0  0  0
  -48.1010    4.6410   -0.6480 Br  0  0  0  0  0  0  0  0  0  0  0  0
  1  2  1  0  0  0  0
  2  3  1  0  0  0  0
  3  4  1  0  0  0  0
  4  5  1  0  0  0  0
  5  6  1  0  0  0  0
  6  7  1  0  0  0  0
  7  8  1  0  0  0  0
  8  9  1  0  0  0  0
  9 10  1  0  0  0  0
  6 11  1  0  0  0  0
 10 11  1  0  0  0  0
  9 12  1  0  0  0  0
 12 13  2  0  0  0  0
 13 14  1  0  0  0  0
 14 15  2  0  0  0  0
 12 16  1  0  0  0  0
 15 16  1  0  0  0  0
  5 17  1  0  0  0  0
 17 18  1  0  0  0  0
 18 19  1  0  0  0  0
 19 20  1  0  0  0  0
 20 21  2  0  0  0  0
 21 22  1  0  0  0  0
 22 23  2  0  0  0  0
 19 24  2  0  0  0  0
 23 24  1  0  0  0  0
 22 25  1  0  0  0  0
M  END
$$$$
