7M95
  PyMOL3.1          3D                             0

 24 27  0  0  0  0  0  0  0  0999 V2000
   -1.9284   -8.9331   18.6722 N   0  0  0  0  0  0  0  0  0  0  0  0
   -4.3607   -8.7099   18.1708 C   0  0  0  0  0  0  0  0  0  0  0  0
   -2.9365   -8.3355   17.7879 C   0  0  0  0  0  0  0  0  0  0  0  0
    2.1521  -10.4266   23.3565 N   0  0  0  0  0  0  0  0  0  0  0  0
   -1.8058   -8.1731   19.9169 C   0  0  0  0  0  0  0  0  0  0  0  0
    4.1131  -11.6482   22.6896 N   0  0  0  0  0  0  0  0  0  0  0  0
   -1.0241   -8.9578   20.9604 C   0  0  0  0  0  0  0  0  0  0  0  0
    0.2453   -9.5054   20.3675 C   0  0  0  0  0  0  0  0  0  0  0  0
    0.4401   -9.5537   19.0397 C   0  0  0  0  0  0  0  0  0  0  0  0
   -0.5766   -9.0930   18.0452 C   0  0  0  0  0  0  0  0  0  0  0  0
    1.2241   -9.9970   21.3557 C   0  0  0  0  0  0  0  0  0  0  0  0
    1.0997   -9.8379   22.7159 C   0  0  0  0  0  0  0  0  0  0  0  0
    2.9833  -10.9806   22.4217 C   0  0  0  0  0  0  0  0  0  0  0  0
    4.7675  -12.1103   21.6122 C   0  0  0  0  0  0  0  0  0  0  0  0
    4.3394  -11.9289   20.3007 C   0  0  0  0  0  0  0  0  0  0  0  0
    3.1624  -11.2329   20.0590 C   0  0  0  0  0  0  0  0  0  0  0  0
    2.4483  -10.7367   21.1450 C   0  0  0  0  0  0  0  0  0  0  0  0
   -5.4540   -7.9862   17.3812 C   0  0  0  0  0  0  0  0  0  0  0  0
   -6.8514   -8.4533   17.7169 C   0  0  0  0  0  0  0  0  0  0  0  0
   -7.2484   -8.6188   19.0358 C   0  0  0  0  0  0  0  0  0  0  0  0
   -8.5212   -9.0726   19.3415 C   0  0  0  0  0  0  0  0  0  0  0  0
   -9.4132   -9.3652   18.3353 C   0  0  0  0  0  0  0  0  0  0  0  0
   -9.0362   -9.2003   17.0217 C   0  0  0  0  0  0  0  0  0  0  0  0
   -7.7638   -8.7452   16.7132 C   0  0  0  0  0  0  0  0  0  0  0  0
  1  3  1  0  0  0  0
  2  3  1  0  0  0  0
  1  5  1  0  0  0  0
  5  7  1  0  0  0  0
  7  8  1  0  0  0  0
  8  9  2  0  0  0  0
  1 10  1  0  0  0  0
  9 10  1  0  0  0  0
  8 11  1  0  0  0  0
  4 12  1  0  0  0  0
 11 12  2  0  0  0  0
  4 13  1  0  0  0  0
  6 13  1  0  0  0  0
  6 14  2  0  0  0  0
 14 15  1  0  0  0  0
 15 16  2  0  0  0  0
 11 17  1  0  0  0  0
 13 17  2  0  0  0  0
 16 17  1  0  0  0  0
  2 18  1  0  0  0  0
 18 19  1  0  0  0  0
 19 20  2  0  0  0  0
 20 21  1  0  0  0  0
 21 22  2  0  0  0  0
 22 23  1  0  0  0  0
 19 24  1  0  0  0  0
 23 24  2  0  0  0  0
M  END
$$$$
