7M95
  PyMOL3.1          3D                             0

 48 54  0  0  0  0  0  0  0  0999 V2000
   -1.9284   -8.9331   18.6722 N   0  0  0  0  0  0  0  0  0  0  0  0
   -4.3607   -8.7099   18.1708 C   0  0  0  0  0  0  0  0  0  0  0  0
   -2.9365   -8.3355   17.7879 C   0  0  0  0  0  0  0  0  0  0  0  0
    2.1521  -10.4266   23.3565 N   0  0  0  0  0  0  0  0  0  0  0  0
   -1.8058   -8.1731   19.9169 C   0  0  0  0  0  0  0  0  0  0  0  0
    4.1131  -11.6482   22.6896 N   0  0  0  0  0  0  0  0  0  0  0  0
   -1.0241   -8.9578   20.9604 C   0  0  0  0  0  0  0  0  0  0  0  0
    0.2453   -9.5054   20.3675 C   0  0  0  0  0  0  0  0  0  0  0  0
    0.4401   -9.5537   19.0397 C   0  0  0  0  0  0  0  0  0  0  0  0
   -0.5766   -9.0930   18.0452 C   0  0  0  0  0  0  0  0  0  0  0  0
    1.2241   -9.9970   21.3557 C   0  0  0  0  0  0  0  0  0  0  0  0
    1.0997   -9.8379   22.7159 C   0  0  0  0  0  0  0  0  0  0  0  0
    2.9833  -10.9806   22.4217 C   0  0  0  0  0  0  0  0  0  0  0  0
    4.7675  -12.1103   21.6122 C   0  0  0  0  0  0  0  0  0  0  0  0
    4.3394  -11.9289   20.3007 C   0  0  0  0  0  0  0  0  0  0  0  0
    3.1624  -11.2329   20.0590 C   0  0  0  0  0  0  0  0  0  0  0  0
    2.4483  -10.7367   21.1450 C   0  0  0  0  0  0  0  0  0  0  0  0
   -5.4540   -7.9862   17.3812 C   0  0  0  0  0  0  0  0  0  0  0  0
   -6.8514   -8.4533   17.7169 C   0  0  0  0  0  0  0  0  0  0  0  0
   -7.2484   -8.6188   19.0358 C   0  0  0  0  0  0  0  0  0  0  0  0
   -8.5212   -9.0726   19.3415 C   0  0  0  0  0  0  0  0  0  0  0  0
   -9.4132   -9.3652   18.3353 C   0  0  0  0  0  0  0  0  0  0  0  0
   -9.0362   -9.2003   17.0217 C   0  0  0  0  0  0  0  0  0  0  0  0
   -7.7638   -8.7452   16.7132 C   0  0  0  0  0  0  0  0  0  0  0  0
   28.0640   -9.9179   19.1631 N   0  0  0  0  0  0  0  0  0  0  0  0
   30.4746  -10.1737   18.5662 C   0  0  0  0  0  0  0  0  0  0  0  0
   29.0339  -10.5381   18.2537 C   0  0  0  0  0  0  0  0  0  0  0  0
   23.6321   -8.6288   23.6169 N   0  0  0  0  0  0  0  0  0  0  0  0
   27.8711  -10.7330   20.3636 C   0  0  0  0  0  0  0  0  0  0  0  0
   21.7890   -7.2891   22.8485 N   0  0  0  0  0  0  0  0  0  0  0  0
   27.0292   -9.9990   21.3962 C   0  0  0  0  0  0  0  0  0  0  0  0
   25.8188   -9.3618   20.7635 C   0  0  0  0  0  0  0  0  0  0  0  0
   25.7140   -9.2242   19.4354 C   0  0  0  0  0  0  0  0  0  0  0  0
   26.7666   -9.6824   18.4799 C   0  0  0  0  0  0  0  0  0  0  0  0
   24.7752   -8.9070   21.6978 C   0  0  0  0  0  0  0  0  0  0  0  0
   24.7356   -9.1925   23.0410 C   0  0  0  0  0  0  0  0  0  0  0  0
   22.9324   -7.9626   22.6478 C   0  0  0  0  0  0  0  0  0  0  0  0
   21.2760   -6.7074   21.7521 C   0  0  0  0  0  0  0  0  0  0  0  0
   21.8524   -6.7759   20.4890 C   0  0  0  0  0  0  0  0  0  0  0  0
   23.0349   -7.4830   20.3162 C   0  0  0  0  0  0  0  0  0  0  0  0
   23.6038   -8.1009   21.4244 C   0  0  0  0  0  0  0  0  0  0  0  0
   31.4776  -10.7703   17.5817 C   0  0  0  0  0  0  0  0  0  0  0  0
   32.9220  -10.5275   17.9479 C   0  0  0  0  0  0  0  0  0  0  0  0
   33.8315  -10.0891   16.9973 C   0  0  0  0  0  0  0  0  0  0  0  0
   35.1582   -9.8759   17.3317 C   0  0  0  0  0  0  0  0  0  0  0  0
   35.5918  -10.0979   18.6179 C   0  0  0  0  0  0  0  0  0  0  0  0
   34.7010  -10.5305   19.5720 C   0  0  0  0  0  0  0  0  0  0  0  0
   33.3740  -10.7440   19.2409 C   0  0  0  0  0  0  0  0  0  0  0  0
  1  3  1  0  0  0  0
  2  3  1  0  0  0  0
  1  5  1  0  0  0  0
  5  7  1  0  0  0  0
  7  8  1  0  0  0  0
  8  9  2  0  0  0  0
  1 10  1  0  0  0  0
  9 10  1  0  0  0  0
  8 11  1  0  0  0  0
  4 12  1  0  0  0  0
 11 12  2  0  0  0  0
  4 13  1  0  0  0  0
  6 13  1  0  0  0  0
  6 14  2  0  0  0  0
 14 15  1  0  0  0  0
 15 16  2  0  0  0  0
 11 17  1  0  0  0  0
 13 17  2  0  0  0  0
 16 17  1  0  0  0  0
  2 18  1  0  0  0  0
 18 19  1  0  0  0  0
 19 20  2  0  0  0  0
 20 21  1  0  0  0  0
 21 22  2  0  0  0  0
 22 23  1  0  0  0  0
 19 24  1  0  0  0  0
 23 24  2  0  0  0  0
 25 27  1  0  0  0  0
 26 27  1  0  0  0  0
 25 29  1  0  0  0  0
 29 31  1  0  0  0  0
 31 32  1  0  0  0  0
 32 33  2  0  0  0  0
 25 34  1  0  0  0  0
 33 34  1  0  0  0  0
 32 35  1  0  0  0  0
 28 36  1  0  0  0  0
 35 36  2  0  0  0  0
 28 37  1  0  0  0  0
 30 37  1  0  0  0  0
 30 38  2  0  0  0  0
 38 39  1  0  0  0  0
 39 40  2  0  0  0  0
 35 41  1  0  0  0  0
 37 41  2  0  0  0  0
 40 41  1  0  0  0  0
 26 42  1  0  0  0  0
 42 43  1  0  0  0  0
 43 44  2  0  0  0  0
 44 45  1  0  0  0  0
 45 46  2  0  0  0  0
 46 47  1  0  0  0  0
 43 48  1  0  0  0  0
 47 48  2  0  0  0  0
M  END
$$$$
