7L1V
  PyMOL3.1          3D                             0

 45 49  0  0  0  0  0  0  0  0999 V2000
  122.7130  121.0840  160.1750 N   0  0  0  0  0  0  0  0  0  0  0  0
  123.6800  121.8040  160.9310 C   0  0  0  0  0  0  0  0  0  0  0  0
  123.4670  127.4470  159.0700 O   0  0  0  0  0  0  0  0  0  0  0  0
  124.5320  122.6180  160.1960 C   0  0  0  0  0  0  0  0  0  0  0  0
  125.3030  126.4320  158.2780 N   0  0  0  0  0  0  0  0  0  0  0  0
  120.8340  119.7030  159.4610 O   0  0  0  0  0  0  0  0  0  0  0  0
  125.2370  123.6490  160.8020 C   0  0  0  0  0  0  0  0  0  0  0  0
  123.8810  127.3020  155.4250 N   0  0  0  0  0  0  0  0  0  0  0  0
  121.1220  120.1460  161.8740 O   0  0  0  0  0  0  0  0  0  0  0  0
  125.8970  124.7080  159.9540 C   0  0  0  0  0  0  0  0  0  0  0  0
  124.5620  126.1540  155.3940 N   0  0  0  0  0  0  0  0  0  0  0  0
  119.2090  124.6920  166.8150 O   0  0  0  0  0  0  0  0  0  0  0  0
  124.9690  125.1330  158.8420 C   0  0  0  0  0  0  0  0  0  0  0  0
  122.6650  127.2470  154.8720 N   0  0  0  0  0  0  0  0  0  0  0  0
  120.9840  122.3390  158.1710 O   0  0  0  0  0  0  0  0  0  0  0  0
  124.4390  127.4490  158.3220 C   0  0  0  0  0  0  0  0  0  0  0  0
  117.6040  123.1580  167.0990 N   0  0  0  0  0  0  0  0  0  0  0  0
  124.6730  128.5870  157.3780 C   0  0  0  0  0  0  0  0  0  0  0  0
  125.1590  129.7850  157.8940 C   0  0  0  0  0  0  0  0  0  0  0  0
  125.3780  130.8640  157.0560 C   0  0  0  0  0  0  0  0  0  0  0  0
  125.1200  130.7630  155.7070 C   0  0  0  0  0  0  0  0  0  0  0  0
  124.6340  129.5830  155.1710 C   0  0  0  0  0  0  0  0  0  0  0  0
  124.4060  128.4940  156.0030 C   0  0  0  0  0  0  0  0  0  0  0  0
  123.7330  125.3160  154.7870 C   0  0  0  0  0  0  0  0  0  0  0  0
  122.5670  125.9890  154.4670 C   0  0  0  0  0  0  0  0  0  0  0  0
  125.1580  123.7860  162.1780 C   0  0  0  0  0  0  0  0  0  0  0  0
  124.3460  122.9520  162.9250 C   0  0  0  0  0  0  0  0  0  0  0  0
  123.5960  121.9680  162.3050 C   0  0  0  0  0  0  0  0  0  0  0  0
  120.1860  122.0420  160.3660 C   0  0  0  0  0  0  0  0  0  0  0  0
  119.4450  122.4600  161.4630 C   0  0  0  0  0  0  0  0  0  0  0  0
  118.7270  123.6540  161.4140 C   0  0  0  0  0  0  0  0  0  0  0  0
  117.9810  124.1540  162.5930 C   0  0  0  0  0  0  0  0  0  0  0  0
  116.9420  125.0700  162.4340 C   0  0  0  0  0  0  0  0  0  0  0  0
  116.3340  125.6470  163.5340 C   0  0  0  0  0  0  0  0  0  0  0  0
  116.7460  125.3150  164.8100 C   0  0  0  0  0  0  0  0  0  0  0  0
  117.7650  124.3890  164.9990 C   0  0  0  0  0  0  0  0  0  0  0  0
  118.2470  124.0890  166.3820 C   0  0  0  0  0  0  0  0  0  0  0  0
  116.4900  122.3340  166.6460 C   0  0  0  0  0  0  0  0  0  0  0  0
  117.9850  122.9460  168.4840 C   0  0  0  0  0  0  0  0  0  0  0  0
  118.3680  123.8080  163.8870 C   0  0  0  0  0  0  0  0  0  0  0  0
  118.7540  124.3940  160.2400 C   0  0  0  0  0  0  0  0  0  0  0  0
  119.4770  123.9790  159.1390 C   0  0  0  0  0  0  0  0  0  0  0  0
  120.2020  122.8050  159.1890 C   0  0  0  0  0  0  0  0  0  0  0  0
  121.1080  123.1570  157.0100 C   0  0  0  0  0  0  0  0  0  0  0  0
  121.1950  120.5950  160.5190 S   0  0  0  0  0  0  0  0  0  0  0  0
  1  2  1  0  0  0  0
  2  4  1  0  0  0  0
  4  7  2  0  0  0  0
  7 10  1  0  0  0  0
  8 11  1  0  0  0  0
  5 13  1  0  0  0  0
 10 13  1  0  0  0  0
  8 14  1  0  0  0  0
  3 16  2  0  0  0  0
  5 16  1  0  0  0  0
 16 18  1  0  0  0  0
 18 19  1  0  0  0  0
 19 20  2  0  0  0  0
 20 21  1  0  0  0  0
 21 22  2  0  0  0  0
  8 23  1  0  0  0  0
 18 23  2  0  0  0  0
 22 23  1  0  0  0  0
 11 24  2  0  0  0  0
 14 25  2  0  0  0  0
 24 25  1  0  0  0  0
  7 26  1  0  0  0  0
 26 27  2  0  0  0  0
  2 28  2  0  0  0  0
 27 28  1  0  0  0  0
 29 30  2  0  0  0  0
 30 31  1  0  0  0  0
 31 32  1  0  0  0  0
 32 33  2  0  0  0  0
 33 34  1  0  0  0  0
 34 35  2  0  0  0  0
 35 36  1  0  0  0  0
 12 37  2  0  0  0  0
 17 37  1  0  0  0  0
 36 37  1  0  0  0  0
 17 38  1  0  0  0  0
 17 39  1  0  0  0  0
 32 40  1  0  0  0  0
 36 40  2  0  0  0  0
 31 41  2  0  0  0  0
 41 42  1  0  0  0  0
 15 43  1  0  0  0  0
 29 43  1  0  0  0  0
 42 43  2  0  0  0  0
 15 44  1  0  0  0  0
  1 45  1  0  0  0  0
  6 45  2  0  0  0  0
  9 45  2  0  0  0  0
 29 45  1  0  0  0  0
M  END
$$$$
