8PM2
  PyMOL3.1          3D                             0

  9  9  0  0  0  0  0  0  0  0999 V2000
  153.9480  155.6810  113.9850 C   0  0  0  0  0  0  0  0  0  0  0  0
  151.9000  156.5820  115.1360 N   0  0  0  0  0  0  0  0  0  0  0  0
  155.0620  154.6330  114.0440 C   0  0  0  0  0  0  0  0  0  0  0  0
  155.7900  154.6720  115.3720 C   0  0  0  0  0  0  0  0  0  0  0  0
  154.7840  154.4110  116.4940 C   0  0  0  0  0  0  0  0  0  0  0  0
  153.6770  155.4660  116.4790 C   0  0  0  0  0  0  0  0  0  0  0  0
  152.9680  155.5050  115.1350 C   0  0  0  0  0  0  0  0  0  0  0  0
  151.3580  156.8560  113.7700 C   0  0  0  0  0  0  0  0  0  0  0  0
  150.7740  156.2970  116.0800 C   0  0  0  0  0  0  0  0  0  0  0  0
  1  3  1  0  0  0  0
  3  4  1  0  0  0  0
  4  5  1  0  0  0  0
  5  6  1  0  0  0  0
  1  7  1  0  0  0  0
  2  7  1  0  0  0  0
  6  7  1  0  0  0  0
  2  8  1  0  0  0  0
  2  9  1  0  0  0  0
M  END
$$$$
