8EA0
  PyMOL3.1          3D                             0

 14 14  0  0  0  0  0  0  0  0999 V2000
  124.8510  119.4540  153.8890 C   0  0  0  0  0  0  0  0  0  0  0  0
  125.0760  120.5090  154.9150 N   0  0  0  0  0  0  0  0  0  0  0  0
  123.8600  121.3620  155.0090 C   0  0  0  0  0  0  0  0  0  0  0  0
  125.3170  119.8600  156.2320 C   0  0  0  0  0  0  0  0  0  0  0  0
  126.2680  121.3490  154.5500 C   0  0  0  0  0  0  0  0  0  0  0  0
  127.2710  120.5750  153.8160 C   0  0  0  0  0  0  0  0  0  0  0  0
  128.0880  119.9660  153.2160 C   0  0  0  0  0  0  0  0  0  0  0  0
  129.1060  119.2320  152.4690 C   0  0  0  0  0  0  0  0  0  0  0  0
  130.4010  119.5870  152.9570 O   0  0  0  0  0  0  0  0  0  0  0  0
  130.7120  120.8900  152.9550 C   0  0  0  0  0  0  0  0  0  0  0  0
  130.8370  121.6710  153.9950 N   0  0  0  0  0  0  0  0  0  0  0  0
  131.4890  122.8620  153.5640 O   0  0  0  0  0  0  0  0  0  0  0  0
  131.4650  122.9330  152.1160 C   0  0  0  0  0  0  0  0  0  0  0  0
  130.9720  121.5780  151.6540 C   0  0  0  0  0  0  0  0  0  0  0  0
  1  2  1  0  0  0  0
  2  3  1  0  0  0  0
  2  4  1  0  0  0  0
  2  5  1  0  0  0  0
  5  6  1  0  0  0  0
  6  7  3  0  0  0  0
  7  8  1  0  0  0  0
  8  9  1  0  0  0  0
  9 10  1  0  0  0  0
 10 11  2  0  0  0  0
 11 12  1  0  0  0  0
 12 13  1  0  0  0  0
 10 14  1  0  0  0  0
 13 14  1  0  0  0  0
M  END
$$$$
