8SIA
  PyMOL3.1          3D                             0

148160  0  0  0  0  0  0  0  0999 V2000
  123.1620  149.7620  142.8740 C   0  0  0  0  0  0  0  0  0  0  0  0
  124.5630  150.3400  142.8830 C   0  0  0  0  0  0  0  0  0  0  0  0
  125.5850  149.2280  143.0820 C   0  0  0  0  0  0  0  0  0  0  0  0
  125.2370  148.3580  144.2740 C   0  0  0  0  0  0  0  0  0  0  0  0
  126.2380  147.6150  144.8910 C   0  0  0  0  0  0  0  0  0  0  0  0
  125.9720  146.8760  146.0250 C   0  0  0  0  0  0  0  0  0  0  0  0
  124.7110  146.8690  146.5590 C   0  0  0  0  0  0  0  0  0  0  0  0
  123.7040  147.5980  145.9600 C   0  0  0  0  0  0  0  0  0  0  0  0
  123.9490  148.3490  144.8140 C   0  0  0  0  0  0  0  0  0  0  0  0
  122.8450  149.1870  144.2220 C   0  0  0  0  0  0  0  0  0  0  0  0
  126.9250  149.7850  143.2390 N   0  0  0  0  0  0  0  0  0  0  0  0
  127.9380  149.5510  142.3980 C   0  0  0  0  0  0  0  0  0  0  0  0
  129.1770  149.8770  142.7040 N   0  0  0  0  0  0  0  0  0  0  0  0
  129.9070  149.5410  141.5700 C   0  0  0  0  0  0  0  0  0  0  0  0
  131.2590  149.6940  141.2900 C   0  0  0  0  0  0  0  0  0  0  0  0
  131.7280  149.3140  140.0420 C   0  0  0  0  0  0  0  0  0  0  0  0
  130.8730  148.7900  139.0890 C   0  0  0  0  0  0  0  0  0  0  0  0
  129.5250  148.6310  139.3560 C   0  0  0  0  0  0  0  0  0  0  0  0
  129.0610  149.0130  140.6020 C   0  0  0  0  0  0  0  0  0  0  0  0
  127.8020  149.0270  141.1580 N   0  0  0  0  0  0  0  0  0  0  0  0
  125.5410  148.6240  142.3210 H   0  0  0  0  0  0  0  0  0  0  0  0
  122.5210  150.4680  142.6590 H   0  0  0  0  0  0  0  0  0  0  0  0
  123.1070  149.0670  142.1900 H   0  0  0  0  0  0  0  0  0  0  0  0
  124.6280  150.9890  143.6120 H   0  0  0  0  0  0  0  0  0  0  0  0
  124.7250  150.8000  142.0370 H   0  0  0  0  0  0  0  0  0  0  0  0
  127.1450  147.6150  144.5290 H   0  0  0  0  0  0  0  0  0  0  0  0
  126.6790  146.3360  146.4150 H   0  0  0  0  0  0  0  0  0  0  0  0
  124.5270  146.3670  147.3750 H   0  0  0  0  0  0  0  0  0  0  0  0
  122.8180  147.5950  146.3700 H   0  0  0  0  0  0  0  0  0  0  0  0
  122.0020  148.6940  144.1700 H   0  0  0  0  0  0  0  0  0  0  0  0
  122.7470  149.9270  144.8450 H   0  0  0  0  0  0  0  0  0  0  0  0
  127.0870  150.3130  143.9190 H   0  0  0  0  0  0  0  0  0  0  0  0
  131.8610  150.0590  141.9670 H   0  0  0  0  0  0  0  0  0  0  0  0
  132.6720  149.4140  139.8240 H   0  0  0  0  0  0  0  0  0  0  0  0
  131.2270  148.5430  138.2150 H   0  0  0  0  0  0  0  0  0  0  0  0
  128.9240  148.2550  138.6880 H   0  0  0  0  0  0  0  0  0  0  0  0
  127.0660  148.7400  140.7730 H   0  0  0  0  0  0  0  0  0  0  0  0
   93.2710  123.3220  142.9310 C   0  0  0  0  0  0  0  0  0  0  0  0
   92.7510  124.7440  142.9700 C   0  0  0  0  0  0  0  0  0  0  0  0
   93.9030  125.7180  143.1790 C   0  0  0  0  0  0  0  0  0  0  0  0
   94.7610  125.3250  144.3670 C   0  0  0  0  0  0  0  0  0  0  0  0
   95.5330  126.2870  145.0100 C   0  0  0  0  0  0  0  0  0  0  0  0
   96.2760  125.9650  146.1290 C   0  0  0  0  0  0  0  0  0  0  0  0
   96.2560  124.6870  146.6220 C   0  0  0  0  0  0  0  0  0  0  0  0
   95.4960  123.7190  145.9960 C   0  0  0  0  0  0  0  0  0  0  0  0
   94.7430  124.0210  144.8660 C   0  0  0  0  0  0  0  0  0  0  0  0
   93.8590  122.9610  144.2610 C   0  0  0  0  0  0  0  0  0  0  0  0
   93.3950  127.0770  143.3320 N   0  0  0  0  0  0  0  0  0  0  0  0
   93.5670  128.0440  142.4240 C   0  0  0  0  0  0  0  0  0  0  0  0
   93.2560  129.2980  142.6760 N   0  0  0  0  0  0  0  0  0  0  0  0
   93.5630  129.9700  141.4980 C   0  0  0  0  0  0  0  0  0  0  0  0
   93.4410  131.3120  141.1640 C   0  0  0  0  0  0  0  0  0  0  0  0
   93.8190  131.7220  139.8950 C   0  0  0  0  0  0  0  0  0  0  0  0
   94.3100  130.8170  138.9720 C   0  0  0  0  0  0  0  0  0  0  0  0
   94.4380  129.4770  139.2910 C   0  0  0  0  0  0  0  0  0  0  0  0
   94.0590  129.0720  140.5590 C   0  0  0  0  0  0  0  0  0  0  0  0
   94.0530  127.8430  141.1770 N   0  0  0  0  0  0  0  0  0  0  0  0
   94.5090  125.6490  142.4200 H   0  0  0  0  0  0  0  0  0  0  0  0
   92.5330  122.7150  142.7250 H   0  0  0  0  0  0  0  0  0  0  0  0
   93.9480  123.2430  142.2330 H   0  0  0  0  0  0  0  0  0  0  0  0
   92.1100  124.8270  143.7040 H   0  0  0  0  0  0  0  0  0  0  0  0
   92.2940  124.9440  142.1310 H   0  0  0  0  0  0  0  0  0  0  0  0
   95.5530  127.2070  144.6850 H   0  0  0  0  0  0  0  0  0  0  0  0
   96.8350  126.6450  146.5430 H   0  0  0  0  0  0  0  0  0  0  0  0
   96.7580  124.4610  147.4280 H   0  0  0  0  0  0  0  0  0  0  0  0
   95.4800  122.8200  146.3740 H   0  0  0  0  0  0  0  0  0  0  0  0
   94.3190  122.1020  144.1860 H   0  0  0  0  0  0  0  0  0  0  0  0
   93.1270  122.8850  144.8960 H   0  0  0  0  0  0  0  0  0  0  0  0
   92.9320  127.2800  144.0490 H   0  0  0  0  0  0  0  0  0  0  0  0
   93.1010  131.9480  141.8220 H   0  0  0  0  0  0  0  0  0  0  0  0
   93.7420  132.6580  139.6400 H   0  0  0  0  0  0  0  0  0  0  0  0
   94.5510  131.1280  138.0800 H   0  0  0  0  0  0  0  0  0  0  0  0
   94.7960  128.8390  138.6450 H   0  0  0  0  0  0  0  0  0  0  0  0
   94.3210  127.0870  140.8200 H   0  0  0  0  0  0  0  0  0  0  0  0
  119.7690   93.3800  142.8730 C   0  0  0  0  0  0  0  0  0  0  0  0
  118.3740   92.7900  142.8750 C   0  0  0  0  0  0  0  0  0  0  0  0
  117.3400   93.8940  143.0490 C   0  0  0  0  0  0  0  0  0  0  0  0
  117.6620   94.7810  144.2360 C   0  0  0  0  0  0  0  0  0  0  0  0
  116.6480   95.5200  144.8350 C   0  0  0  0  0  0  0  0  0  0  0  0
  116.8960   96.2760  145.9630 C   0  0  0  0  0  0  0  0  0  0  0  0
  118.1510   96.3020  146.5080 C   0  0  0  0  0  0  0  0  0  0  0  0
  119.1710   95.5770  145.9260 C   0  0  0  0  0  0  0  0  0  0  0  0
  118.9450   94.8120  144.7870 C   0  0  0  0  0  0  0  0  0  0  0  0
  120.0650   93.9810  144.2150 C   0  0  0  0  0  0  0  0  0  0  0  0
  116.0030   93.3240  143.1890 N   0  0  0  0  0  0  0  0  0  0  0  0
  115.0000   93.5440  142.3330 C   0  0  0  0  0  0  0  0  0  0  0  0
  113.7580   93.2260  142.6320 N   0  0  0  0  0  0  0  0  0  0  0  0
  113.0370   93.5550  141.4900 C   0  0  0  0  0  0  0  0  0  0  0  0
  111.6840   93.4210  141.2070 C   0  0  0  0  0  0  0  0  0  0  0  0
  111.2230   93.8080  139.9590 C   0  0  0  0  0  0  0  0  0  0  0  0
  112.0870   94.3190  139.0070 C   0  0  0  0  0  0  0  0  0  0  0  0
  113.4360   94.4590  139.2770 C   0  0  0  0  0  0  0  0  0  0  0  0
  113.8930   94.0710  140.5240 C   0  0  0  0  0  0  0  0  0  0  0  0
  115.1480   94.0550  141.0890 N   0  0  0  0  0  0  0  0  0  0  0  0
  117.3860   94.4930  142.2850 H   0  0  0  0  0  0  0  0  0  0  0  0
  120.4200   92.6760  142.6810 H   0  0  0  0  0  0  0  0  0  0  0  0
  119.8290   94.0620  142.1760 H   0  0  0  0  0  0  0  0  0  0  0  0
  118.3070   92.1510  143.6130 H   0  0  0  0  0  0  0  0  0  0  0  0
  118.2250   92.3170  142.0340 H   0  0  0  0  0  0  0  0  0  0  0  0
  115.7430   95.5070  144.4660 H   0  0  0  0  0  0  0  0  0  0  0  0
  116.1800   96.8140  146.3450 H   0  0  0  0  0  0  0  0  0  0  0  0
  118.3240   96.8150  147.3200 H   0  0  0  0  0  0  0  0  0  0  0  0
  120.0510   95.5940  146.3460 H   0  0  0  0  0  0  0  0  0  0  0  0
  120.9010   94.4850  144.1620 H   0  0  0  0  0  0  0  0  0  0  0  0
  120.1680   93.2510  144.8480 H   0  0  0  0  0  0  0  0  0  0  0  0
  115.8390   92.7970  143.8680 H   0  0  0  0  0  0  0  0  0  0  0  0
  111.0770   93.0660  141.8850 H   0  0  0  0  0  0  0  0  0  0  0  0
  110.2770   93.7230  139.7410 H   0  0  0  0  0  0  0  0  0  0  0  0
  111.7380   94.5650  138.1300 H   0  0  0  0  0  0  0  0  0  0  0  0
  114.0450   94.8290  138.6100 H   0  0  0  0  0  0  0  0  0  0  0  0
  115.8890   94.3330  140.7070 H   0  0  0  0  0  0  0  0  0  0  0  0
  149.6650  119.7170  142.8830 C   0  0  0  0  0  0  0  0  0  0  0  0
  150.1770  118.2920  142.8680 C   0  0  0  0  0  0  0  0  0  0  0  0
  149.0480  117.3180  143.1760 C   0  0  0  0  0  0  0  0  0  0  0  0
  148.2360  117.7410  144.3870 C   0  0  0  0  0  0  0  0  0  0  0  0
  147.4430  116.8070  145.0470 C   0  0  0  0  0  0  0  0  0  0  0  0
  146.7240  117.1590  146.1730 C   0  0  0  0  0  0  0  0  0  0  0  0
  146.7890  118.4390  146.6560 C   0  0  0  0  0  0  0  0  0  0  0  0
  147.5690  119.3790  146.0140 C   0  0  0  0  0  0  0  0  0  0  0  0
  148.2990  119.0470  144.8780 C   0  0  0  0  0  0  0  0  0  0  0  0
  149.2180  120.0680  144.2610 C   0  0  0  0  0  0  0  0  0  0  0  0
  149.5830  115.9720  143.3560 N   0  0  0  0  0  0  0  0  0  0  0  0
  149.4240  114.9870  142.4650 C   0  0  0  0  0  0  0  0  0  0  0  0
  149.7590  113.7440  142.7430 N   0  0  0  0  0  0  0  0  0  0  0  0
  149.4650  113.0430  141.5800 C   0  0  0  0  0  0  0  0  0  0  0  0
  149.6100  111.6950  141.2770 C   0  0  0  0  0  0  0  0  0  0  0  0
  149.2380  111.2510  140.0180 C   0  0  0  0  0  0  0  0  0  0  0  0
  148.7300  112.1270  139.0740 C   0  0  0  0  0  0  0  0  0  0  0  0
  148.5800  113.4710  139.3640 C   0  0  0  0  0  0  0  0  0  0  0  0
  148.9530  113.9100  140.6220 C   0  0  0  0  0  0  0  0  0  0  0  0
  148.9360  115.1530  141.2140 N   0  0  0  0  0  0  0  0  0  0  0  0
  148.4080  117.3430  142.4430 H   0  0  0  0  0  0  0  0  0  0  0  0
  150.3860  120.3190  142.6110 H   0  0  0  0  0  0  0  0  0  0  0  0
  148.9220  119.8080  142.2560 H   0  0  0  0  0  0  0  0  0  0  0  0
  150.8810  118.2030  143.5420 H   0  0  0  0  0  0  0  0  0  0  0  0
  150.5550  118.0950  141.9900 H   0  0  0  0  0  0  0  0  0  0  0  0
  147.3900  115.8860  144.7280 H   0  0  0  0  0  0  0  0  0  0  0  0
  146.1500  116.5010  146.6030 H   0  0  0  0  0  0  0  0  0  0  0  0
  146.3040  118.6840  147.4680 H   0  0  0  0  0  0  0  0  0  0  0  0
  147.6140  120.2820  146.3830 H   0  0  0  0  0  0  0  0  0  0  0  0
  148.8300  120.9650  144.2620 H   0  0  0  0  0  0  0  0  0  0  0  0
  150.0030  120.0430  144.8340 H   0  0  0  0  0  0  0  0  0  0  0  0
  150.0600  115.7910  144.0710 H   0  0  0  0  0  0  0  0  0  0  0  0
  149.9640  111.0800  141.9480 H   0  0  0  0  0  0  0  0  0  0  0  0
  149.3320  110.3100  139.7850 H   0  0  0  0  0  0  0  0  0  0  0  0
  148.4910  111.7900  138.1920 H   0  0  0  0  0  0  0  0  0  0  0  0
  148.2130  114.0880  138.7030 H   0  0  0  0  0  0  0  0  0  0  0  0
  148.6550  115.8960  140.8400 H   0  0  0  0  0  0  0  0  0  0  0  0
  1  2  1  0  0  0  0
  2  3  1  0  0  0  0
  3  4  1  0  0  0  0
  4  5  1  0  0  0  0
  5  6  2  0  0  0  0
  6  7  1  0  0  0  0
  7  8  2  0  0  0  0
  4  9  2  0  0  0  0
  8  9  1  0  0  0  0
  1 10  1  0  0  0  0
  9 10  1  0  0  0  0
  3 11  1  0  0  0  0
 11 12  1  0  0  0  0
 12 13  2  0  0  0  0
 13 14  1  0  0  0  0
 14 15  1  0  0  0  0
 15 16  2  0  0  0  0
 16 17  1  0  0  0  0
 17 18  2  0  0  0  0
 14 19  2  0  0  0  0
 18 19  1  0  0  0  0
 12 20  1  0  0  0  0
 19 20  1  0  0  0  0
  3 21  1  0  0  0  0
  1 22  1  0  0  0  0
  1 23  1  0  0  0  0
  2 24  1  0  0  0  0
  2 25  1  0  0  0  0
  5 26  1  0  0  0  0
  6 27  1  0  0  0  0
  7 28  1  0  0  0  0
  8 29  1  0  0  0  0
 10 30  1  0  0  0  0
 10 31  1  0  0  0  0
 11 32  1  0  0  0  0
 15 33  1  0  0  0  0
 16 34  1  0  0  0  0
 17 35  1  0  0  0  0
 18 36  1  0  0  0  0
 20 37  1  0  0  0  0
 38 39  1  0  0  0  0
 39 40  1  0  0  0  0
 40 41  1  0  0  0  0
 41 42  1  0  0  0  0
 42 43  2  0  0  0  0
 43 44  1  0  0  0  0
 44 45  2  0  0  0  0
 41 46  2  0  0  0  0
 45 46  1  0  0  0  0
 38 47  1  0  0  0  0
 46 47  1  0  0  0  0
 40 48  1  0  0  0  0
 48 49  1  0  0  0  0
 49 50  2  0  0  0  0
 50 51  1  0  0  0  0
 51 52  1  0  0  0  0
 52 53  2  0  0  0  0
 53 54  1  0  0  0  0
 54 55  2  0  0  0  0
 51 56  2  0  0  0  0
 55 56  1  0  0  0  0
 49 57  1  0  0  0  0
 56 57  1  0  0  0  0
 40 58  1  0  0  0  0
 38 59  1  0  0  0  0
 38 60  1  0  0  0  0
 39 61  1  0  0  0  0
 39 62  1  0  0  0  0
 42 63  1  0  0  0  0
 43 64  1  0  0  0  0
 44 65  1  0  0  0  0
 45 66  1  0  0  0  0
 47 67  1  0  0  0  0
 47 68  1  0  0  0  0
 48 69  1  0  0  0  0
 52 70  1  0  0  0  0
 53 71  1  0  0  0  0
 54 72  1  0  0  0  0
 55 73  1  0  0  0  0
 57 74  1  0  0  0  0
 75 76  1  0  0  0  0
 76 77  1  0  0  0  0
 77 78  1  0  0  0  0
 78 79  1  0  0  0  0
 79 80  2  0  0  0  0
 80 81  1  0  0  0  0
 81 82  2  0  0  0  0
 78 83  2  0  0  0  0
 82 83  1  0  0  0  0
 75 84  1  0  0  0  0
 83 84  1  0  0  0  0
 77 85  1  0  0  0  0
 85 86  1  0  0  0  0
 86 87  2  0  0  0  0
 87 88  1  0  0  0  0
 88 89  1  0  0  0  0
 89 90  2  0  0  0  0
 90 91  1  0  0  0  0
 91 92  2  0  0  0  0
 88 93  2  0  0  0  0
 92 93  1  0  0  0  0
 86 94  1  0  0  0  0
 93 94  1  0  0  0  0
 77 95  1  0  0  0  0
 75 96  1  0  0  0  0
 75 97  1  0  0  0  0
 76 98  1  0  0  0  0
 76 99  1  0  0  0  0
 79100  1  0  0  0  0
 80101  1  0  0  0  0
 81102  1  0  0  0  0
 82103  1  0  0  0  0
 84104  1  0  0  0  0
 84105  1  0  0  0  0
 85106  1  0  0  0  0
 89107  1  0  0  0  0
 90108  1  0  0  0  0
 91109  1  0  0  0  0
 92110  1  0  0  0  0
 94111  1  0  0  0  0
112113  1  0  0  0  0
113114  1  0  0  0  0
114115  1  0  0  0  0
115116  1  0  0  0  0
116117  2  0  0  0  0
117118  1  0  0  0  0
118119  2  0  0  0  0
115120  2  0  0  0  0
119120  1  0  0  0  0
112121  1  0  0  0  0
120121  1  0  0  0  0
114122  1  0  0  0  0
122123  1  0  0  0  0
123124  2  0  0  0  0
124125  1  0  0  0  0
125126  1  0  0  0  0
126127  2  0  0  0  0
127128  1  0  0  0  0
128129  2  0  0  0  0
125130  2  0  0  0  0
129130  1  0  0  0  0
123131  1  0  0  0  0
130131  1  0  0  0  0
114132  1  0  0  0  0
112133  1  0  0  0  0
112134  1  0  0  0  0
113135  1  0  0  0  0
113136  1  0  0  0  0
116137  1  0  0  0  0
117138  1  0  0  0  0
118139  1  0  0  0  0
119140  1  0  0  0  0
121141  1  0  0  0  0
121142  1  0  0  0  0
122143  1  0  0  0  0
126144  1  0  0  0  0
127145  1  0  0  0  0
128146  1  0  0  0  0
129147  1  0  0  0  0
131148  1  0  0  0  0
M  END
$$$$
