7L99
  PyMOL3.1          3D                             0

192210  0  0  0  0  0  0  0  0999 V2000
    9.4461   -8.6916   39.9248 C   0  0  0  0  0  0  0  0  0  0  0  0
    9.8499   -7.2388   39.6435 C   0  0  0  0  0  0  0  0  0  0  0  0
   10.7696   -6.7310   40.1479 O   0  0  0  0  0  0  0  0  0  0  0  0
    9.0394   -6.4634   38.7141 N   0  0  0  0  0  0  0  0  0  0  0  0
    9.3725   -5.0443   38.3919 C   0  0  0  0  0  0  0  0  0  0  0  0
    9.8619   -4.7686   37.0986 C   0  0  0  0  0  0  0  0  0  0  0  0
   10.1522   -3.4413   36.7510 C   0  0  0  0  0  0  0  0  0  0  0  0
   10.0040   -2.3584   37.6993 C   0  0  0  0  0  0  0  0  0  0  0  0
    9.5223   -2.6528   38.9692 C   0  0  0  0  0  0  0  0  0  0  0  0
    9.2001   -3.9931   39.3251 C   0  0  0  0  0  0  0  0  0  0  0  0
    8.6703   -4.2761   40.7464 C   0  0  0  0  0  0  0  0  0  0  0  0
   10.6554   -3.2553   35.3910 N   0  0  0  0  0  0  0  0  0  0  0  0
   11.6751   -2.2613   35.0544 C   0  0  0  0  0  0  0  0  0  0  0  0
   12.1515   -1.5390   35.8482 O   0  0  0  0  0  0  0  0  0  0  0  0
   12.1487   -2.2384   33.5919 C   0  0  0  0  0  0  0  0  0  0  0  0
   12.8455   -1.0954   33.0870 C   0  0  0  0  0  0  0  0  0  0  0  0
   13.3067   -1.1091   31.7622 C   0  0  0  0  0  0  0  0  0  0  0  0
   13.0688   -2.2520   30.9549 C   0  0  0  0  0  0  0  0  0  0  0  0
   13.3906   -2.5271   29.6758 N   0  0  0  0  0  0  0  0  0  0  0  0
   12.9624   -3.7668   29.3204 N   0  0  0  0  0  0  0  0  0  0  0  0
   12.3300   -4.3210   30.3314 C   0  0  0  0  0  0  0  0  0  0  0  0
   12.3710   -3.3830   31.4615 C   0  0  0  0  0  0  0  0  0  0  0  0
   11.8998   -3.3795   32.8056 C   0  0  0  0  0  0  0  0  0  0  0  0
   11.6975   -5.7448   30.2936 C   0  0  0  0  0  0  0  0  0  0  0  0
   11.8380   -6.5804   31.4034 C   0  0  0  0  0  0  0  0  0  0  0  0
   11.2910   -7.8604   31.3595 C   0  0  0  0  0  0  0  0  0  0  0  0
   10.5942   -8.3014   30.2109 C   0  0  0  0  0  0  0  0  0  0  0  0
   10.4605   -7.4726   29.1162 C   0  0  0  0  0  0  0  0  0  0  0  0
   11.0108   -6.1892   29.1422 C   0  0  0  0  0  0  0  0  0  0  0  0
   10.8183   -5.2990   27.8913 C   0  0  0  0  0  0  0  0  0  0  0  0
   10.0163   -9.6286   30.1697 N   0  0  0  0  0  0  0  0  0  0  0  0
   14.1263   -1.6137   28.7724 C   0  0  0  0  0  0  0  0  0  0  0  0
  -15.2449   -4.9958    7.3141 C   0  0  0  0  0  0  0  0  0  0  0  0
  -15.8603   -3.6949    7.8106 C   0  0  0  0  0  0  0  0  0  0  0  0
  -16.8511   -3.2550    7.3575 O   0  0  0  0  0  0  0  0  0  0  0  0
  -15.1832   -3.0024    8.9055 N   0  0  0  0  0  0  0  0  0  0  0  0
  -15.6745   -1.7245    9.4911 C   0  0  0  0  0  0  0  0  0  0  0  0
  -16.1705   -1.7599   10.8100 C   0  0  0  0  0  0  0  0  0  0  0  0
  -16.5926   -0.5726   11.4109 C   0  0  0  0  0  0  0  0  0  0  0  0
  -16.5697    0.6938   10.7112 C   0  0  0  0  0  0  0  0  0  0  0  0
  -16.0692    0.7122    9.4005 C   0  0  0  0  0  0  0  0  0  0  0  0
  -15.6212   -0.4932    8.7862 C   0  0  0  0  0  0  0  0  0  0  0  0
  -15.0756   -0.4401    7.3430 C   0  0  0  0  0  0  0  0  0  0  0  0
  -17.0917   -0.7173   12.7767 N   0  0  0  0  0  0  0  0  0  0  0  0
  -18.1984    0.1110   13.2530 C   0  0  0  0  0  0  0  0  0  0  0  0
  -18.7138    0.9137   12.5874 O   0  0  0  0  0  0  0  0  0  0  0  0
  -18.6921   -0.1787   14.6688 C   0  0  0  0  0  0  0  0  0  0  0  0
  -19.4890    0.7693   15.3561 C   0  0  0  0  0  0  0  0  0  0  0  0
  -19.9535    0.4461   16.6314 C   0  0  0  0  0  0  0  0  0  0  0  0
  -19.6323   -0.8044   17.2145 C   0  0  0  0  0  0  0  0  0  0  0  0
  -19.9362   -1.3345   18.4131 N   0  0  0  0  0  0  0  0  0  0  0  0
  -19.4089   -2.5769   18.5309 N   0  0  0  0  0  0  0  0  0  0  0  0
  -18.7186   -2.8715   17.4465 C   0  0  0  0  0  0  0  0  0  0  0  0
  -18.8315   -1.7384   16.5233 C   0  0  0  0  0  0  0  0  0  0  0  0
  -18.3459   -1.4234   15.2259 C   0  0  0  0  0  0  0  0  0  0  0  0
  -17.9564   -4.2159   17.2260 C   0  0  0  0  0  0  0  0  0  0  0  0
  -17.9837   -4.8436   15.9821 C   0  0  0  0  0  0  0  0  0  0  0  0
  -17.3153   -6.0484   15.7974 C   0  0  0  0  0  0  0  0  0  0  0  0
  -16.5967   -6.6257   16.8573 C   0  0  0  0  0  0  0  0  0  0  0  0
  -16.5650   -5.9992   18.0853 C   0  0  0  0  0  0  0  0  0  0  0  0
  -17.2361   -4.7932   18.2856 C   0  0  0  0  0  0  0  0  0  0  0  0
  -17.1567   -4.1334   19.6856 C   0  0  0  0  0  0  0  0  0  0  0  0
  -15.8779   -7.8833   16.6807 N   0  0  0  0  0  0  0  0  0  0  0  0
  -20.7721   -0.6802   19.4697 C   0  0  0  0  0  0  0  0  0  0  0  0
  -26.4898   15.0089   23.8641 C   0  0  0  0  0  0  0  0  0  0  0  0
  -27.8684   15.4759   23.4243 C   0  0  0  0  0  0  0  0  0  0  0  0
  -28.3320   16.4969   23.7864 O   0  0  0  0  0  0  0  0  0  0  0  0
  -28.6300   14.5996   22.5419 N   0  0  0  0  0  0  0  0  0  0  0  0
  -29.9761   14.9758   22.0414 C   0  0  0  0  0  0  0  0  0  0  0  0
  -30.0393   15.2212   20.6591 C   0  0  0  0  0  0  0  0  0  0  0  0
  -31.2586   15.5671   20.0751 C   0  0  0  0  0  0  0  0  0  0  0  0
  -32.4553   15.6927   20.8642 C   0  0  0  0  0  0  0  0  0  0  0  0
  -32.3957   15.4436   22.2438 C   0  0  0  0  0  0  0  0  0  0  0  0
  -31.1487   15.0887   22.8426 C   0  0  0  0  0  0  0  0  0  0  0  0
  -31.0972   14.8155   24.3525 C   0  0  0  0  0  0  0  0  0  0  0  0
  -31.2177   15.8141   18.6205 N   0  0  0  0  0  0  0  0  0  0  0  0
  -31.9205   16.9547   18.0340 C   0  0  0  0  0  0  0  0  0  0  0  0
  -32.5303   17.7110   18.6751 O   0  0  0  0  0  0  0  0  0  0  0  0
  -31.7780   17.1411   16.5194 C   0  0  0  0  0  0  0  0  0  0  0  0
  -32.7621   17.8810   15.7851 C   0  0  0  0  0  0  0  0  0  0  0  0
  -32.5955   18.0290   14.4036 C   0  0  0  0  0  0  0  0  0  0  0  0
  -31.4447   17.4876   13.7720 C   0  0  0  0  0  0  0  0  0  0  0  0
  -31.0384   17.4869   12.4916 N   0  0  0  0  0  0  0  0  0  0  0  0
  -29.8548   16.8334   12.3660 N   0  0  0  0  0  0  0  0  0  0  0  0
  -29.4561   16.3636   13.5271 C   0  0  0  0  0  0  0  0  0  0  0  0
  -30.4662   16.7728   14.5153 C   0  0  0  0  0  0  0  0  0  0  0  0
  -30.6331   16.6108   15.9128 C   0  0  0  0  0  0  0  0  0  0  0  0
  -28.1241   15.5608   13.7692 C   0  0  0  0  0  0  0  0  0  0  0  0
  -27.3722   15.8299   14.9175 C   0  0  0  0  0  0  0  0  0  0  0  0
  -26.1745   15.1517   15.1537 C   0  0  0  0  0  0  0  0  0  0  0  0
  -25.7077   14.2107   14.2128 C   0  0  0  0  0  0  0  0  0  0  0  0
  -26.4352   13.9570   13.0582 C   0  0  0  0  0  0  0  0  0  0  0  0
  -27.6432   14.6211   12.8212 C   0  0  0  0  0  0  0  0  0  0  0  0
  -28.4158   14.2903   11.5198 C   0  0  0  0  0  0  0  0  0  0  0  0
  -24.4543   13.5117   14.4279 N   0  0  0  0  0  0  0  0  0  0  0  0
  -31.7661   18.1195   11.3497 C   0  0  0  0  0  0  0  0  0  0  0  0
  -32.3875    7.8310   27.0519 C   0  0  0  0  0  0  0  0  0  0  0  0
  -31.5294    8.0779   25.8144 C   0  0  0  0  0  0  0  0  0  0  0  0
  -31.9238    7.8005   24.7592 O   0  0  0  0  0  0  0  0  0  0  0  0
  -30.2078    8.6671   25.9689 N   0  0  0  0  0  0  0  0  0  0  0  0
  -29.3756    8.9383   24.7665 C   0  0  0  0  0  0  0  0  0  0  0  0
  -29.1292    7.9463   23.7928 C   0  0  0  0  0  0  0  0  0  0  0  0
  -28.3171    8.2504   22.6916 C   0  0  0  0  0  0  0  0  0  0  0  0
  -27.7879    9.5620   22.4983 C   0  0  0  0  0  0  0  0  0  0  0  0
  -28.0440   10.5475   23.4562 C   0  0  0  0  0  0  0  0  0  0  0  0
  -28.8426   10.2345   24.6038 C   0  0  0  0  0  0  0  0  0  0  0  0
  -29.1299   11.2926   25.6766 C   0  0  0  0  0  0  0  0  0  0  0  0
  -28.1930    7.2114   21.6748 N   0  0  0  0  0  0  0  0  0  0  0  0
  -28.1154    5.7742   21.9083 C   0  0  0  0  0  0  0  0  0  0  0  0
  -28.0090    5.2625   22.9485 O   0  0  0  0  0  0  0  0  0  0  0  0
  -28.1792    4.9626   20.6199 C   0  0  0  0  0  0  0  0  0  0  0  0
  -28.6261    5.6238   19.4291 C   0  0  0  0  0  0  0  0  0  0  0  0
  -28.7459    4.9074   18.2337 C   0  0  0  0  0  0  0  0  0  0  0  0
  -28.4404    3.5226   18.2590 C   0  0  0  0  0  0  0  0  0  0  0  0
  -28.4519    2.5660   17.3195 N   0  0  0  0  0  0  0  0  0  0  0  0
  -28.0773    1.3724   17.8356 N   0  0  0  0  0  0  0  0  0  0  0  0
  -27.8225    1.5035   19.1164 C   0  0  0  0  0  0  0  0  0  0  0  0
  -28.0394    2.8963   19.4655 C   0  0  0  0  0  0  0  0  0  0  0  0
  -27.9118    3.6120   20.6653 C   0  0  0  0  0  0  0  0  0  0  0  0
  -27.3508    0.3536   20.0496 C   0  0  0  0  0  0  0  0  0  0  0  0
  -26.0278   -0.0748   19.9842 C   0  0  0  0  0  0  0  0  0  0  0  0
  -25.5932   -1.1228   20.7878 C   0  0  0  0  0  0  0  0  0  0  0  0
  -26.5055   -1.7472   21.6551 C   0  0  0  0  0  0  0  0  0  0  0  0
  -27.8188   -1.3246   21.7131 C   0  0  0  0  0  0  0  0  0  0  0  0
  -28.2500   -0.2709   20.9037 C   0  0  0  0  0  0  0  0  0  0  0  0
  -29.7046    0.2331   20.9632 C   0  0  0  0  0  0  0  0  0  0  0  0
  -26.0528   -2.8379   22.5050 N   0  0  0  0  0  0  0  0  0  0  0  0
  -28.8103    2.7711   15.8885 C   0  0  0  0  0  0  0  0  0  0  0  0
  -27.9361   14.6254   27.0534 C   0  0  0  0  0  0  0  0  0  0  0  0
  -26.5779   15.0521   27.5889 C   0  0  0  0  0  0  0  0  0  0  0  0
  -26.1569   16.1351   27.4472 O   0  0  0  0  0  0  0  0  0  0  0  0
  -25.7580   14.0622   28.2716 N   0  0  0  0  0  0  0  0  0  0  0  0
  -24.4355   14.4518   28.8310 C   0  0  0  0  0  0  0  0  0  0  0  0
  -24.3848   14.4819   30.2435 C   0  0  0  0  0  0  0  0  0  0  0  0
  -23.2115   14.8286   30.8873 C   0  0  0  0  0  0  0  0  0  0  0  0
  -22.0097   15.1686   30.1455 C   0  0  0  0  0  0  0  0  0  0  0  0
  -22.0675   15.1367   28.7421 C   0  0  0  0  0  0  0  0  0  0  0  0
  -23.2841   14.7774   28.0735 C   0  0  0  0  0  0  0  0  0  0  0  0
  -23.3295   14.7354   26.5364 C   0  0  0  0  0  0  0  0  0  0  0  0
  -23.2807   14.8254   32.3447 N   0  0  0  0  0  0  0  0  0  0  0  0
  -22.7084   15.9188   33.1241 C   0  0  0  0  0  0  0  0  0  0  0  0
  -22.2309   16.8616   32.6315 O   0  0  0  0  0  0  0  0  0  0  0  0
  -22.8809   15.8060   34.6475 C   0  0  0  0  0  0  0  0  0  0  0  0
  -21.9405   16.4518   35.5061 C   0  0  0  0  0  0  0  0  0  0  0  0
  -22.1409   16.3463   36.8838 C   0  0  0  0  0  0  0  0  0  0  0  0
  -23.2752   15.6592   37.3867 C   0  0  0  0  0  0  0  0  0  0  0  0
  -23.6813   15.4393   38.6513 N   0  0  0  0  0  0  0  0  0  0  0  0
  -24.8413   14.7272   38.6676 N   0  0  0  0  0  0  0  0  0  0  0  0
  -25.2191   14.4383   37.4310 C   0  0  0  0  0  0  0  0  0  0  0  0
  -24.2196   15.0420   36.5259 C   0  0  0  0  0  0  0  0  0  0  0  0
  -24.0279   15.1382   35.1264 C   0  0  0  0  0  0  0  0  0  0  0  0
  -26.5130   13.6455   37.0465 C   0  0  0  0  0  0  0  0  0  0  0  0
  -27.2483   14.0667   35.9408 C   0  0  0  0  0  0  0  0  0  0  0  0
  -28.4219   13.3958   35.5865 C   0  0  0  0  0  0  0  0  0  0  0  0
  -28.8795   12.3107   36.3516 C   0  0  0  0  0  0  0  0  0  0  0  0
  -28.1667   11.9030   37.4657 C   0  0  0  0  0  0  0  0  0  0  0  0
  -26.9833   12.5621   37.8218 C   0  0  0  0  0  0  0  0  0  0  0  0
  -26.2334   12.0628   39.0804 C   0  0  0  0  0  0  0  0  0  0  0  0
  -30.1213   11.6260   35.9990 N   0  0  0  0  0  0  0  0  0  0  0  0
  -22.9368   15.9270   39.8542 C   0  0  0  0  0  0  0  0  0  0  0  0
  -21.6966    8.4867   22.6700 C   0  0  0  0  0  0  0  0  0  0  0  0
  -22.5742    8.4823   23.9277 C   0  0  0  0  0  0  0  0  0  0  0  0
  -22.1838    8.0000   24.9187 O   0  0  0  0  0  0  0  0  0  0  0  0
  -23.9018    9.0964   23.8848 N   0  0  0  0  0  0  0  0  0  0  0  0
  -24.7515    9.1059   25.1063 C   0  0  0  0  0  0  0  0  0  0  0  0
  -24.9512    7.9337   25.8808 C   0  0  0  0  0  0  0  0  0  0  0  0
  -25.7793    7.9889   27.0223 C   0  0  0  0  0  0  0  0  0  0  0  0
  -26.3538    9.2281   27.4450 C   0  0  0  0  0  0  0  0  0  0  0  0
  -26.1437   10.3714   26.6905 C   0  0  0  0  0  0  0  0  0  0  0  0
  -25.3408   10.3216   25.5100 C   0  0  0  0  0  0  0  0  0  0  0  0
  -25.1057   11.5796   24.6467 C   0  0  0  0  0  0  0  0  0  0  0  0
  -25.8565    6.7789   27.8236 N   0  0  0  0  0  0  0  0  0  0  0  0
  -25.9135    5.4037   27.3766 C   0  0  0  0  0  0  0  0  0  0  0  0
  -26.0049    5.0772   26.2559 O   0  0  0  0  0  0  0  0  0  0  0  0
  -25.7774    4.3999   28.5361 C   0  0  0  0  0  0  0  0  0  0  0  0
  -25.2982    4.8937   29.7958 C   0  0  0  0  0  0  0  0  0  0  0  0
  -25.1010    4.0176   30.8767 C   0  0  0  0  0  0  0  0  0  0  0  0
  -25.3635    2.6326   30.6745 C   0  0  0  0  0  0  0  0  0  0  0  0
  -25.3026    1.5422   31.4708 N   0  0  0  0  0  0  0  0  0  0  0  0
  -25.6546    0.4202   30.7985 N   0  0  0  0  0  0  0  0  0  0  0  0
  -25.9611    0.7343   29.5700 C   0  0  0  0  0  0  0  0  0  0  0  0
  -25.8071    2.1720   29.4093 C   0  0  0  0  0  0  0  0  0  0  0  0
  -26.0033    3.0466   28.3196 C   0  0  0  0  0  0  0  0  0  0  0  0
  -26.4374   -0.2791   28.4957 C   0  0  0  0  0  0  0  0  0  0  0  0
  -27.7664   -0.6548   28.5219 C   0  0  0  0  0  0  0  0  0  0  0  0
  -28.2244   -1.5708   27.5899 C   0  0  0  0  0  0  0  0  0  0  0  0
  -27.3366   -2.1036   26.6416 C   0  0  0  0  0  0  0  0  0  0  0  0
  -26.0004   -1.7270   26.6150 C   0  0  0  0  0  0  0  0  0  0  0  0
  -25.5441   -0.8058   27.5640 C   0  0  0  0  0  0  0  0  0  0  0  0
  -24.0682   -0.3551   27.5924 C   0  0  0  0  0  0  0  0  0  0  0  0
  -27.8536   -3.0505   25.6775 N   0  0  0  0  0  0  0  0  0  0  0  0
  -24.8918    1.5027   32.9049 C   0  0  0  0  0  0  0  0  0  0  0  0
  1  2  1  0  0  0  0
  2  3  2  0  0  0  0
  2  4  1  0  0  0  0
  4  5  1  0  0  0  0
  5  6  1  0  0  0  0
  6  7  2  0  0  0  0
  7  8  1  0  0  0  0
  8  9  2  0  0  0  0
  5 10  2  0  0  0  0
  9 10  1  0  0  0  0
 10 11  1  0  0  0  0
  7 12  1  0  0  0  0
 12 13  1  0  0  0  0
 13 14  2  0  0  0  0
 13 15  1  0  0  0  0
 15 16  1  0  0  0  0
 16 17  2  0  0  0  0
 17 18  1  0  0  0  0
 18 19  1  0  0  0  0
 19 20  1  0  0  0  0
 20 21  2  0  0  0  0
 18 22  2  0  0  0  0
 21 22  1  0  0  0  0
 15 23  2  0  0  0  0
 22 23  1  0  0  0  0
 21 24  1  0  0  0  0
 24 25  2  0  0  0  0
 25 26  1  0  0  0  0
 26 27  2  0  0  0  0
 27 28  1  0  0  0  0
 24 29  1  0  0  0  0
 28 29  2  0  0  0  0
 29 30  1  0  0  0  0
 27 31  1  0  0  0  0
 19 32  1  0  0  0  0
 33 34  1  0  0  0  0
 34 35  2  0  0  0  0
 34 36  1  0  0  0  0
 36 37  1  0  0  0  0
 37 38  1  0  0  0  0
 38 39  2  0  0  0  0
 39 40  1  0  0  0  0
 40 41  2  0  0  0  0
 37 42  2  0  0  0  0
 41 42  1  0  0  0  0
 42 43  1  0  0  0  0
 39 44  1  0  0  0  0
 44 45  1  0  0  0  0
 45 46  2  0  0  0  0
 45 47  1  0  0  0  0
 47 48  1  0  0  0  0
 48 49  2  0  0  0  0
 49 50  1  0  0  0  0
 50 51  1  0  0  0  0
 51 52  1  0  0  0  0
 52 53  2  0  0  0  0
 50 54  2  0  0  0  0
 53 54  1  0  0  0  0
 47 55  2  0  0  0  0
 54 55  1  0  0  0  0
 53 56  1  0  0  0  0
 56 57  2  0  0  0  0
 57 58  1  0  0  0  0
 58 59  2  0  0  0  0
 59 60  1  0  0  0  0
 56 61  1  0  0  0  0
 60 61  2  0  0  0  0
 61 62  1  0  0  0  0
 59 63  1  0  0  0  0
 51 64  1  0  0  0  0
 65 66  1  0  0  0  0
 66 67  2  0  0  0  0
 66 68  1  0  0  0  0
 68 69  1  0  0  0  0
 69 70  1  0  0  0  0
 70 71  2  0  0  0  0
 71 72  1  0  0  0  0
 72 73  2  0  0  0  0
 69 74  2  0  0  0  0
 73 74  1  0  0  0  0
 74 75  1  0  0  0  0
 71 76  1  0  0  0  0
 76 77  1  0  0  0  0
 77 78  2  0  0  0  0
 77 79  1  0  0  0  0
 79 80  1  0  0  0  0
 80 81  2  0  0  0  0
 81 82  1  0  0  0  0
 82 83  1  0  0  0  0
 83 84  1  0  0  0  0
 84 85  2  0  0  0  0
 82 86  2  0  0  0  0
 85 86  1  0  0  0  0
 79 87  2  0  0  0  0
 86 87  1  0  0  0  0
 85 88  1  0  0  0  0
 88 89  2  0  0  0  0
 89 90  1  0  0  0  0
 90 91  2  0  0  0  0
 91 92  1  0  0  0  0
 88 93  1  0  0  0  0
 92 93  2  0  0  0  0
 93 94  1  0  0  0  0
 91 95  1  0  0  0  0
 83 96  1  0  0  0  0
 97 98  1  0  0  0  0
 98 99  2  0  0  0  0
 98100  1  0  0  0  0
100101  1  0  0  0  0
101102  1  0  0  0  0
102103  2  0  0  0  0
103104  1  0  0  0  0
104105  2  0  0  0  0
101106  2  0  0  0  0
105106  1  0  0  0  0
106107  1  0  0  0  0
103108  1  0  0  0  0
108109  1  0  0  0  0
109110  2  0  0  0  0
109111  1  0  0  0  0
111112  1  0  0  0  0
112113  2  0  0  0  0
113114  1  0  0  0  0
114115  1  0  0  0  0
115116  1  0  0  0  0
116117  2  0  0  0  0
114118  2  0  0  0  0
117118  1  0  0  0  0
111119  2  0  0  0  0
118119  1  0  0  0  0
117120  1  0  0  0  0
120121  2  0  0  0  0
121122  1  0  0  0  0
122123  2  0  0  0  0
123124  1  0  0  0  0
120125  1  0  0  0  0
124125  2  0  0  0  0
125126  1  0  0  0  0
123127  1  0  0  0  0
115128  1  0  0  0  0
129130  1  0  0  0  0
130131  2  0  0  0  0
130132  1  0  0  0  0
132133  1  0  0  0  0
133134  1  0  0  0  0
134135  2  0  0  0  0
135136  1  0  0  0  0
136137  2  0  0  0  0
133138  2  0  0  0  0
137138  1  0  0  0  0
138139  1  0  0  0  0
135140  1  0  0  0  0
140141  1  0  0  0  0
141142  2  0  0  0  0
141143  1  0  0  0  0
143144  1  0  0  0  0
144145  2  0  0  0  0
145146  1  0  0  0  0
146147  1  0  0  0  0
147148  1  0  0  0  0
148149  2  0  0  0  0
146150  2  0  0  0  0
149150  1  0  0  0  0
143151  2  0  0  0  0
150151  1  0  0  0  0
149152  1  0  0  0  0
152153  2  0  0  0  0
153154  1  0  0  0  0
154155  2  0  0  0  0
155156  1  0  0  0  0
152157  1  0  0  0  0
156157  2  0  0  0  0
157158  1  0  0  0  0
155159  1  0  0  0  0
147160  1  0  0  0  0
161162  1  0  0  0  0
162163  2  0  0  0  0
162164  1  0  0  0  0
164165  1  0  0  0  0
165166  1  0  0  0  0
166167  2  0  0  0  0
167168  1  0  0  0  0
168169  2  0  0  0  0
165170  2  0  0  0  0
169170  1  0  0  0  0
170171  1  0  0  0  0
167172  1  0  0  0  0
172173  1  0  0  0  0
173174  2  0  0  0  0
173175  1  0  0  0  0
175176  1  0  0  0  0
176177  2  0  0  0  0
177178  1  0  0  0  0
178179  1  0  0  0  0
179180  1  0  0  0  0
180181  2  0  0  0  0
178182  2  0  0  0  0
181182  1  0  0  0  0
175183  2  0  0  0  0
182183  1  0  0  0  0
181184  1  0  0  0  0
184185  2  0  0  0  0
185186  1  0  0  0  0
186187  2  0  0  0  0
187188  1  0  0  0  0
184189  1  0  0  0  0
188189  2  0  0  0  0
189190  1  0  0  0  0
187191  1  0  0  0  0
179192  1  0  0  0  0
M  END
$$$$
