7L99
  PyMOL3.1          3D                             0

 32 35  0  0  0  0  0  0  0  0999 V2000
  -21.6966    8.4867   22.6700 C   0  0  0  0  0  0  0  0  0  0  0  0
  -22.5742    8.4823   23.9277 C   0  0  0  0  0  0  0  0  0  0  0  0
  -22.1838    8.0000   24.9187 O   0  0  0  0  0  0  0  0  0  0  0  0
  -23.9018    9.0964   23.8848 N   0  0  0  0  0  0  0  0  0  0  0  0
  -24.7515    9.1059   25.1063 C   0  0  0  0  0  0  0  0  0  0  0  0
  -24.9512    7.9337   25.8808 C   0  0  0  0  0  0  0  0  0  0  0  0
  -25.7793    7.9889   27.0223 C   0  0  0  0  0  0  0  0  0  0  0  0
  -26.3538    9.2281   27.4450 C   0  0  0  0  0  0  0  0  0  0  0  0
  -26.1437   10.3714   26.6905 C   0  0  0  0  0  0  0  0  0  0  0  0
  -25.3408   10.3216   25.5100 C   0  0  0  0  0  0  0  0  0  0  0  0
  -25.1057   11.5796   24.6467 C   0  0  0  0  0  0  0  0  0  0  0  0
  -25.8565    6.7789   27.8236 N   0  0  0  0  0  0  0  0  0  0  0  0
  -25.9135    5.4037   27.3766 C   0  0  0  0  0  0  0  0  0  0  0  0
  -26.0049    5.0772   26.2559 O   0  0  0  0  0  0  0  0  0  0  0  0
  -25.7774    4.3999   28.5361 C   0  0  0  0  0  0  0  0  0  0  0  0
  -25.2982    4.8937   29.7958 C   0  0  0  0  0  0  0  0  0  0  0  0
  -25.1010    4.0176   30.8767 C   0  0  0  0  0  0  0  0  0  0  0  0
  -25.3635    2.6326   30.6745 C   0  0  0  0  0  0  0  0  0  0  0  0
  -25.3026    1.5422   31.4708 N   0  0  0  0  0  0  0  0  0  0  0  0
  -25.6546    0.4202   30.7985 N   0  0  0  0  0  0  0  0  0  0  0  0
  -25.9611    0.7343   29.5700 C   0  0  0  0  0  0  0  0  0  0  0  0
  -25.8071    2.1720   29.4093 C   0  0  0  0  0  0  0  0  0  0  0  0
  -26.0033    3.0466   28.3196 C   0  0  0  0  0  0  0  0  0  0  0  0
  -26.4374   -0.2791   28.4957 C   0  0  0  0  0  0  0  0  0  0  0  0
  -27.7664   -0.6548   28.5219 C   0  0  0  0  0  0  0  0  0  0  0  0
  -28.2244   -1.5708   27.5899 C   0  0  0  0  0  0  0  0  0  0  0  0
  -27.3366   -2.1036   26.6416 C   0  0  0  0  0  0  0  0  0  0  0  0
  -26.0004   -1.7270   26.6150 C   0  0  0  0  0  0  0  0  0  0  0  0
  -25.5441   -0.8058   27.5640 C   0  0  0  0  0  0  0  0  0  0  0  0
  -24.0682   -0.3551   27.5924 C   0  0  0  0  0  0  0  0  0  0  0  0
  -27.8536   -3.0505   25.6775 N   0  0  0  0  0  0  0  0  0  0  0  0
  -24.8918    1.5027   32.9049 C   0  0  0  0  0  0  0  0  0  0  0  0
  1  2  1  0  0  0  0
  2  3  2  0  0  0  0
  2  4  1  0  0  0  0
  4  5  1  0  0  0  0
  5  6  1  0  0  0  0
  6  7  2  0  0  0  0
  7  8  1  0  0  0  0
  8  9  2  0  0  0  0
  5 10  2  0  0  0  0
  9 10  1  0  0  0  0
 10 11  1  0  0  0  0
  7 12  1  0  0  0  0
 12 13  1  0  0  0  0
 13 14  2  0  0  0  0
 13 15  1  0  0  0  0
 15 16  1  0  0  0  0
 16 17  2  0  0  0  0
 17 18  1  0  0  0  0
 18 19  1  0  0  0  0
 19 20  1  0  0  0  0
 20 21  2  0  0  0  0
 18 22  2  0  0  0  0
 21 22  1  0  0  0  0
 15 23  2  0  0  0  0
 22 23  1  0  0  0  0
 21 24  1  0  0  0  0
 24 25  2  0  0  0  0
 25 26  1  0  0  0  0
 26 27  2  0  0  0  0
 27 28  1  0  0  0  0
 24 29  1  0  0  0  0
 28 29  2  0  0  0  0
 29 30  1  0  0  0  0
 27 31  1  0  0  0  0
 19 32  1  0  0  0  0
M  END
$$$$
