7SSE
  PyMOL3.1          3D                             0

 26 29  0  0  0  0  0  0  0  0999 V2000
   -1.1350  -13.4640   36.4460 N   0  0  0  0  0  0  0  0  0  0  0  0
   -1.1450  -14.9680   34.4880 C   0  0  0  0  0  0  0  0  0  0  0  0
  -11.1700  -18.3600   36.0210 O   0  0  0  0  0  0  0  0  0  0  0  0
   -2.5070  -15.4880   34.9180 C   0  0  0  0  0  0  0  0  0  0  0  0
   -4.5370  -14.9710   36.1710 N   0  0  0  0  0  0  0  0  0  0  0  0
   -3.2600  -14.4350   35.7060 C   0  0  0  0  0  0  0  0  0  0  0  0
   -7.8840  -15.3260   33.7940 N   0  0  0  0  0  0  0  0  0  0  0  0
   -2.4310  -13.9790   36.8990 C   0  0  0  0  0  0  0  0  0  0  0  0
   -5.6190  -14.5840   34.1580 N   0  0  0  0  0  0  0  0  0  0  0  0
   -0.3710  -14.4620   35.6850 C   0  0  0  0  0  0  0  0  0  0  0  0
   -9.0200  -16.6060   35.3660 N   0  0  0  0  0  0  0  0  0  0  0  0
   -0.4140  -12.6350   37.3380 C   0  0  0  0  0  0  0  0  0  0  0  0
    0.9840  -12.6300   37.3270 C   0  0  0  0  0  0  0  0  0  0  0  0
    1.6890  -11.8060   38.1910 C   0  0  0  0  0  0  0  0  0  0  0  0
    1.0280  -10.9750   39.0770 C   0  0  0  0  0  0  0  0  0  0  0  0
   -0.3380  -10.9940   39.0710 C   0  0  0  0  0  0  0  0  0  0  0  0
   -1.0840  -11.7940   38.2360 C   0  0  0  0  0  0  0  0  0  0  0  0
   -5.6470  -15.1360   35.3780 C   0  0  0  0  0  0  0  0  0  0  0  0
   -6.7600  -15.8260   35.8680 C   0  0  0  0  0  0  0  0  0  0  0  0
   -7.8770  -15.9030   35.0150 C   0  0  0  0  0  0  0  0  0  0  0  0
   -6.7480  -14.7100   33.4510 C   0  0  0  0  0  0  0  0  0  0  0  0
   -9.0620  -17.3400   36.6380 C   0  0  0  0  0  0  0  0  0  0  0  0
  -10.4830  -17.6440   37.0330 C   0  0  0  0  0  0  0  0  0  0  0  0
  -11.1750  -17.6050   34.8100 C   0  0  0  0  0  0  0  0  0  0  0  0
   -9.7770  -17.3170   34.3280 C   0  0  0  0  0  0  0  0  0  0  0  0
   -0.9990  -10.1660   39.9230 F   0  0  0  0  0  0  0  0  0  0  0  0
  2  4  1  0  0  0  0
  4  6  1  0  0  0  0
  5  6  1  0  0  0  0
  1  8  1  0  0  0  0
  6  8  1  0  0  0  0
  1 10  1  0  0  0  0
  2 10  1  0  0  0  0
  1 12  1  0  0  0  0
 12 13  2  0  0  0  0
 13 14  1  0  0  0  0
 14 15  2  0  0  0  0
 15 16  1  0  0  0  0
 12 17  1  0  0  0  0
 16 17  2  0  0  0  0
  5 18  1  0  0  0  0
  9 18  2  0  0  0  0
 18 19  1  0  0  0  0
  7 20  1  0  0  0  0
 11 20  1  0  0  0  0
 19 20  2  0  0  0  0
  7 21  2  0  0  0  0
  9 21  1  0  0  0  0
 11 22  1  0  0  0  0
  3 23  1  0  0  0  0
 22 23  1  0  0  0  0
  3 24  1  0  0  0  0
 11 25  1  0  0  0  0
 24 25  1  0  0  0  0
 16 26  1  0  0  0  0
M  END
$$$$
