8TA2
  PyMOL3.1          3D                             0

 39 41  0  0  0  0  0  0  0  0999 V2000
  114.5300  117.1120  142.7960 Cl  0  0  0  0  0  0  0  0  0  0  0  0
  112.5520  115.3810  137.9950 Cl  0  0  0  0  0  0  0  0  0  0  0  0
  110.5400  116.1300  142.5250 O   0  0  0  0  0  0  0  0  0  0  0  0
  110.2780  114.9370  142.5330 C   0  0  0  0  0  0  0  0  0  0  0  0
  109.2180  114.5110  142.9530 O   0  0  0  0  0  0  0  0  0  0  0  0
  111.2380  113.9650  141.9580 C   0  0  0  0  0  0  0  0  0  0  0  0
  111.0260  112.6200  142.0880 C   0  0  0  0  0  0  0  0  0  0  0  0
  111.9610  111.7480  141.6180 C   0  0  0  0  0  0  0  0  0  0  0  0
  113.0800  112.2430  140.9930 C   0  0  0  0  0  0  0  0  0  0  0  0
  113.2590  113.5150  140.8210 N   0  0  0  0  0  0  0  0  0  0  0  0
  112.3720  114.3520  141.2720 C   0  0  0  0  0  0  0  0  0  0  0  0
  112.6470  115.6630  141.0070 N   0  0  0  0  0  0  0  0  0  0  0  0
  113.6880  116.2810  140.3280 C   0  0  0  0  0  0  0  0  0  0  0  0
  114.6530  116.9940  141.0530 C   0  0  0  0  0  0  0  0  0  0  0  0
  115.7520  117.5610  140.3970 C   0  0  0  0  0  0  0  0  0  0  0  0
  115.8990  117.4050  139.0100 C   0  0  0  0  0  0  0  0  0  0  0  0
  114.9320  116.7070  138.2650 C   0  0  0  0  0  0  0  0  0  0  0  0
  115.0900  116.4440  136.9150 O   0  0  0  0  0  0  0  0  0  0  0  0
  115.8740  117.2180  135.9760 C   0  0  0  0  0  0  0  0  0  0  0  0
  114.9870  118.2700  135.3280 C   0  0  0  0  0  0  0  0  0  0  0  0
  113.7940  117.8900  134.6950 C   0  0  0  0  0  0  0  0  0  0  0  0
  112.9460  118.8610  134.1530 C   0  0  0  0  0  0  0  0  0  0  0  0
  113.2940  120.2140  134.2200 C   0  0  0  0  0  0  0  0  0  0  0  0
  114.4920  120.5990  134.8250 C   0  0  0  0  0  0  0  0  0  0  0  0
  115.3420  119.6280  135.3660 C   0  0  0  0  0  0  0  0  0  0  0  0
  113.8170  116.1640  138.9290 C   0  0  0  0  0  0  0  0  0  0  0  0
  110.1500  112.2370  142.6060 H   0  0  0  0  0  0  0  0  0  0  0  0
  111.8480  110.6760  141.7370 H   0  0  0  0  0  0  0  0  0  0  0  0
  113.8450  111.5750  140.6210 H   0  0  0  0  0  0  0  0  0  0  0  0
  112.0770  116.2590  141.5940 H   0  0  0  0  0  0  0  0  0  0  0  0
  116.5030  118.0980  140.9660 H   0  0  0  0  0  0  0  0  0  0  0  0
  116.2390  116.5540  135.1840 H   0  0  0  0  0  0  0  0  0  0  0  0
  116.7520  117.6730  136.4460 H   0  0  0  0  0  0  0  0  0  0  0  0
  113.5140  116.8430  134.6500 H   0  0  0  0  0  0  0  0  0  0  0  0
  112.0140  118.5680  133.6820 H   0  0  0  0  0  0  0  0  0  0  0  0
  112.6310  120.9630  133.8000 H   0  0  0  0  0  0  0  0  0  0  0  0
  114.7600  121.6500  134.8810 H   0  0  0  0  0  0  0  0  0  0  0  0
  116.2680  119.9370  135.8390 H   0  0  0  0  0  0  0  0  0  0  0  0
  116.7800  117.8190  138.5310 H   0  0  0  0  0  0  0  0  0  0  0  0
  3  4  2  0  0  0  0
  4  5  1  0  0  0  0
  4  6  1  0  0  0  0
  6  7  1  0  0  0  0
  7  8  2  0  0  0  0
  8  9  1  0  0  0  0
  9 10  2  0  0  0  0
  6 11  2  0  0  0  0
 10 11  1  0  0  0  0
 11 12  1  0  0  0  0
 12 13  1  0  0  0  0
  1 14  1  0  0  0  0
 13 14  1  0  0  0  0
 14 15  2  0  0  0  0
 15 16  1  0  0  0  0
 16 17  2  0  0  0  0
 17 18  1  0  0  0  0
 18 19  1  0  0  0  0
 19 20  1  0  0  0  0
 20 21  2  0  0  0  0
 21 22  1  0  0  0  0
 22 23  2  0  0  0  0
 23 24  1  0  0  0  0
 20 25  1  0  0  0  0
 24 25  2  0  0  0  0
  2 26  1  0  0  0  0
 13 26  2  0  0  0  0
 17 26  1  0  0  0  0
  7 27  1  0  0  0  0
  8 28  1  0  0  0  0
  9 29  1  0  0  0  0
 12 30  1  0  0  0  0
 15 31  1  0  0  0  0
 19 32  1  0  0  0  0
 19 33  1  0  0  0  0
 21 34  1  0  0  0  0
 22 35  1  0  0  0  0
 23 36  1  0  0  0  0
 24 37  1  0  0  0  0
 25 38  1  0  0  0  0
 16 39  1  0  0  0  0
M  END
$$$$
