8THH
  PyMOL3.1          3D                             0

 16 17  0  0  0  0  0  0  0  0999 V2000
  132.1800  133.0530  111.9020 Cl  0  0  0  0  0  0  0  0  0  0  0  0
  130.8800  132.0370  109.1830 Cl  0  0  0  0  0  0  0  0  0  0  0  0
  130.8740  132.7030  114.9220 N   0  0  0  0  0  0  0  0  0  0  0  0
  130.8140  135.4430  115.5020 N   0  0  0  0  0  0  0  0  0  0  0  0
  129.5820  135.8300  113.4940 N   0  0  0  0  0  0  0  0  0  0  0  0
  131.4650  133.1880  116.0550 N   0  0  0  0  0  0  0  0  0  0  0  0
  132.0500  134.7550  117.4470 N   0  0  0  0  0  0  0  0  0  0  0  0
  129.6110  133.1130  112.8650 C   0  0  0  0  0  0  0  0  0  0  0  0
  130.2830  133.5960  114.1460 C   0  0  0  0  0  0  0  0  0  0  0  0
  130.4150  132.8340  111.7780 C   0  0  0  0  0  0  0  0  0  0  0  0
  128.2450  132.9430  112.7920 C   0  0  0  0  0  0  0  0  0  0  0  0
  130.2560  134.9460  114.4230 C   0  0  0  0  0  0  0  0  0  0  0  0
  129.8460  132.3920  110.5970 C   0  0  0  0  0  0  0  0  0  0  0  0
  127.6740  132.5020  111.6130 C   0  0  0  0  0  0  0  0  0  0  0  0
  128.4730  132.2270  110.5170 C   0  0  0  0  0  0  0  0  0  0  0  0
  131.3590  134.4950  116.2000 C   0  0  0  0  0  0  0  0  0  0  0  0
  3  6  2  0  0  0  0
  3  9  1  0  0  0  0
  8  9  1  0  0  0  0
  1 10  1  0  0  0  0
  8 10  2  0  0  0  0
  8 11  1  0  0  0  0
  4 12  1  0  0  0  0
  5 12  1  0  0  0  0
  9 12  2  0  0  0  0
  2 13  1  0  0  0  0
 10 13  1  0  0  0  0
 11 14  2  0  0  0  0
 13 15  2  0  0  0  0
 14 15  1  0  0  0  0
  4 16  2  0  0  0  0
  6 16  1  0  0  0  0
  7 16  1  0  0  0  0
M  END
$$$$
