8R41
  PyMOL3.1          3D                             0

 50 54  0  0  0  0  0  0  0  0999 V2000
  -34.4560  -25.7100   40.3070 C   0  0  0  0  0  0  0  0  0  0  0  0
  -33.3490  -25.6170   39.4760 O   0  0  0  0  0  0  0  0  0  0  0  0
  -32.6600  -24.3610   39.5390 C   0  0  0  0  0  0  0  0  0  0  0  0
  -31.1810  -24.5610   39.1300 C   0  0  0  0  0  0  0  0  0  0  0  0
  -30.9840  -24.3020   37.6710 N   0  0  0  0  0  0  0  0  0  0  0  0
  -29.5230  -24.2840   37.3510 C   0  0  0  0  0  0  0  0  0  0  0  0
  -29.3970  -24.1230   35.8720 C   0  0  0  0  0  0  0  0  0  0  0  0
  -27.9900  -23.8220   35.3790 C   0  0  0  0  0  0  0  0  0  0  0  0
  -27.1200  -23.2520   36.3890 N   0  0  0  0  0  0  0  0  0  0  0  0
  -27.8290  -22.4270   37.3800 C   0  0  0  0  0  0  0  0  0  0  0  0
  -28.8110  -23.2540   38.1740 C   0  0  0  0  0  0  0  0  0  0  0  0
  -25.7990  -22.8720   35.9330 C   0  0  0  0  0  0  0  0  0  0  0  0
  -25.4720  -22.5830   34.6650 N   0  0  0  0  0  0  0  0  0  0  0  0
  -24.1730  -22.2590   34.4410 C   0  0  0  0  0  0  0  0  0  0  0  0
  -23.3440  -22.2720   35.5530 C   0  0  0  0  0  0  0  0  0  0  0  0
  -24.3630  -22.7250   36.8840 S   0  0  0  0  0  0  0  0  0  0  0  0
  -31.5550  -25.4100   36.9230 C   0  0  0  0  0  0  0  0  0  0  0  0
  -30.9420  -26.7370   37.3840 C   0  0  0  0  0  0  0  0  0  0  0  0
  -31.7210  -27.9710   36.8200 C   0  0  0  0  0  0  0  0  0  0  0  0
  -31.7320  -28.2130   35.4500 C   0  0  0  0  0  0  0  0  0  0  0  0
  -32.4250  -29.3070   34.9540 C   0  0  0  0  0  0  0  0  0  0  0  0
  -33.0950  -30.1410   35.8190 C   0  0  0  0  0  0  0  0  0  0  0  0
  -33.0820  -29.8980   37.1880 C   0  0  0  0  0  0  0  0  0  0  0  0
  -32.3910  -28.8020   37.6860 C   0  0  0  0  0  0  0  0  0  0  0  0
  -34.0490  -31.6370   35.1270 Br  0  0  0  0  0  0  0  0  0  0  0  0
  -47.4640    9.3400    5.5080 C   0  0  0  0  0  0  0  0  0  0  0  0
  -48.8450    9.2450    5.5260 O   0  0  0  0  0  0  0  0  0  0  0  0
  -49.3820    8.8810    6.8010 C   0  0  0  0  0  0  0  0  0  0  0  0
  -50.8940    8.6120    6.6380 C   0  0  0  0  0  0  0  0  0  0  0  0
  -51.1630    7.1480    6.7270 N   0  0  0  0  0  0  0  0  0  0  0  0
  -52.6410    6.8920    6.6810 C   0  0  0  0  0  0  0  0  0  0  0  0
  -52.8640    5.4110    6.6090 C   0  0  0  0  0  0  0  0  0  0  0  0
  -54.1260    4.8480    7.2540 C   0  0  0  0  0  0  0  0  0  0  0  0
  -54.9970    5.8540    7.8180 N   0  0  0  0  0  0  0  0  0  0  0  0
  -54.2490    6.8020    8.6500 C   0  0  0  0  0  0  0  0  0  0  0  0
  -53.3250    7.6330    7.7930 C   0  0  0  0  0  0  0  0  0  0  0  0
  -56.3330    5.4280    8.1910 C   0  0  0  0  0  0  0  0  0  0  0  0
  -56.7100    4.1600    8.4200 N   0  0  0  0  0  0  0  0  0  0  0  0
  -58.0120    3.9720    8.7540 C   0  0  0  0  0  0  0  0  0  0  0  0
  -58.7940    5.1170    8.8140 C   0  0  0  0  0  0  0  0  0  0  0  0
  -57.7280    6.4280    8.4090 S   0  0  0  0  0  0  0  0  0  0  0  0
  -50.5490    6.5170    5.5720 C   0  0  0  0  0  0  0  0  0  0  0  0
  -51.1270    7.0500    4.2560 C   0  0  0  0  0  0  0  0  0  0  0  0
  -50.3820    6.4210    3.0270 C   0  0  0  0  0  0  0  0  0  0  0  0
  -50.4080    5.0430    2.8090 C   0  0  0  0  0  0  0  0  0  0  0  0
  -49.7360    4.4980    1.7190 C   0  0  0  0  0  0  0  0  0  0  0  0
  -49.0440    5.3280    0.8610 C   0  0  0  0  0  0  0  0  0  0  0  0
  -49.0210    6.6970    1.0900 C   0  0  0  0  0  0  0  0  0  0  0  0
  -49.6890    7.2420    2.1750 C   0  0  0  0  0  0  0  0  0  0  0  0
  -48.1010    4.6410   -0.6480 Br  0  0  0  0  0  0  0  0  0  0  0  0
  1  2  1  0  0  0  0
  2  3  1  0  0  0  0
  3  4  1  0  0  0  0
  4  5  1  0  0  0  0
  5  6  1  0  0  0  0
  6  7  1  0  0  0  0
  7  8  1  0  0  0  0
  8  9  1  0  0  0  0
  9 10  1  0  0  0  0
  6 11  1  0  0  0  0
 10 11  1  0  0  0  0
  9 12  1  0  0  0  0
 12 13  2  0  0  0  0
 13 14  1  0  0  0  0
 14 15  2  0  0  0  0
 12 16  1  0  0  0  0
 15 16  1  0  0  0  0
  5 17  1  0  0  0  0
 17 18  1  0  0  0  0
 18 19  1  0  0  0  0
 19 20  1  0  0  0  0
 20 21  2  0  0  0  0
 21 22  1  0  0  0  0
 22 23  2  0  0  0  0
 19 24  2  0  0  0  0
 23 24  1  0  0  0  0
 22 25  1  0  0  0  0
 26 27  1  0  0  0  0
 27 28  1  0  0  0  0
 28 29  1  0  0  0  0
 29 30  1  0  0  0  0
 30 31  1  0  0  0  0
 31 32  1  0  0  0  0
 32 33  1  0  0  0  0
 33 34  1  0  0  0  0
 34 35  1  0  0  0  0
 31 36  1  0  0  0  0
 35 36  1  0  0  0  0
 34 37  1  0  0  0  0
 37 38  2  0  0  0  0
 38 39  1  0  0  0  0
 39 40  2  0  0  0  0
 37 41  1  0  0  0  0
 40 41  1  0  0  0  0
 30 42  1  0  0  0  0
 42 43  1  0  0  0  0
 43 44  1  0  0  0  0
 44 45  1  0  0  0  0
 45 46  2  0  0  0  0
 46 47  1  0  0  0  0
 47 48  2  0  0  0  0
 44 49  2  0  0  0  0
 48 49  1  0  0  0  0
 47 50  1  0  0  0  0
M  END
$$$$
