7X5N
  PyMOL3.1          3D                             0

 30 33  0  0  0  0  0  0  0  0999 V2000
   87.0834   88.8397   45.1823 C   0  0  0  0  0  0  0  0  0  0  0  0
   87.3942   87.5132   44.4842 C   0  0  0  0  0  0  0  0  0  0  0  0
   88.6442   86.9382   44.6005 C   0  0  0  0  0  0  0  0  0  0  0  0
   88.9071   85.7267   43.9804 C   0  0  0  0  0  0  0  0  0  0  0  0
   90.3184   85.1559   44.0964 C   0  0  0  0  0  0  0  0  0  0  0  0
   91.0414   85.3484   45.1771 C   0  0  0  0  0  0  0  0  0  0  0  0
   92.4651   84.8038   45.2469 C   0  0  0  0  0  0  0  0  0  0  0  0
   92.9778   84.1611   44.2224 C   0  0  0  0  0  0  0  0  0  0  0  0
   92.1539   83.9668   42.9496 C   0  0  0  0  0  0  0  0  0  0  0  0
   90.9253   84.4378   42.8895 C   0  0  0  0  0  0  0  0  0  0  0  0
   87.9283   85.0907   43.2299 C   0  0  0  0  0  0  0  0  0  0  0  0
   86.6638   85.6605   43.1186 C   0  0  0  0  0  0  0  0  0  0  0  0
   85.6052   84.9830   42.2882 C   0  0  0  0  0  0  0  0  0  0  0  0
   85.6599   83.4269   42.4819 C   0  0  0  0  0  0  0  0  0  0  0  0
   85.7286   82.5724   43.4935 C   0  0  0  0  0  0  0  0  0  0  0  0
   85.7516   82.9102   44.9899 C   0  0  0  0  0  0  0  0  0  0  0  0
   85.6825   82.5887   41.2462 C   0  0  0  0  0  0  0  0  0  0  0  0
   85.6387   84.3175   39.6884 C   0  0  0  0  0  0  0  0  0  0  0  0
   85.9956   85.2578   40.8049 C   0  0  0  0  0  0  0  0  0  0  0  0
   86.6033   86.5976   40.4298 C   0  0  0  0  0  0  0  0  0  0  0  0
   85.7746   81.3220   43.0858 N   0  0  0  0  0  0  0  0  0  0  0  0
   85.7475   81.2371   41.7125 N   0  0  0  0  0  0  0  0  0  0  0  0
   86.2088   84.6435   38.3755 N   0  0  0  0  0  0  0  0  0  0  0  0
   87.0983   87.5777   40.1800 N   0  0  0  0  0  0  0  0  0  0  0  0
   88.1245   89.1474   46.0593 O   0  0  0  0  0  0  0  0  0  0  0  0
   85.6385   83.0145   39.9582 O   0  0  0  0  0  0  0  0  0  0  0  0
   84.2166   85.6099   42.5335 C   0  0  0  0  0  0  0  0  0  0  0  0
   83.5733   85.2785   43.8893 C   0  0  0  0  0  0  0  0  0  0  0  0
   83.2006   85.2505   41.4536 C   0  0  0  0  0  0  0  0  0  0  0  0
   86.4182   86.8794   43.7416 C   0  0  0  0  0  0  0  0  0  0  0  0
  1  2  1  0  0  0  0
  2  3  1  0  0  0  0
  3  4  2  0  0  0  0
  4  5  1  0  0  0  0
  5  6  1  0  0  0  0
  6  7  2  0  0  0  0
  7  8  1  0  0  0  0
  8  9  2  0  0  0  0
  5 10  2  0  0  0  0
  9 10  1  0  0  0  0
  4 11  1  0  0  0  0
 11 12  2  0  0  0  0
 12 13  1  0  0  0  0
 13 14  1  0  0  0  0
 14 15  1  0  0  0  0
 15 16  1  0  0  0  0
 14 17  2  0  0  0  0
 13 19  1  0  0  0  0
 18 19  2  0  0  0  0
 19 20  1  0  0  0  0
 15 21  2  0  0  0  0
 17 22  1  0  0  0  0
 21 22  1  0  0  0  0
 18 23  1  0  0  0  0
 20 24  3  0  0  0  0
  1 25  1  0  0  0  0
 17 26  1  0  0  0  0
 18 26  1  0  0  0  0
 13 27  1  0  0  0  0
 27 28  1  0  0  0  0
 27 29  1  0  0  0  0
  2 30  2  0  0  0  0
 12 30  1  0  0  0  0
M  END
$$$$
