7UM6
  PyMOL3.1          3D                             0

 25 28  0  0  0  0  0  0  0  0999 V2000
  123.8810  102.9420   87.7330 C   0  0  0  0  0  0  0  0  0  0  0  0
  124.7780  103.1600   83.6920 C   0  0  0  0  0  0  0  0  0  0  0  0
  123.5220  109.0150   89.7530 C   0  0  0  0  0  0  0  0  0  0  0  0
  121.7870  108.1100   86.0500 C   0  0  0  0  0  0  0  0  0  0  0  0
  117.9020  109.8570   85.1200 C   0  0  0  0  0  0  0  0  0  0  0  0
  119.2030  109.3830   85.2750 C   0  0  0  0  0  0  0  0  0  0  0  0
  117.1630  110.3030   86.2160 C   0  0  0  0  0  0  0  0  0  0  0  0
  118.3000  110.3840   89.6140 C   0  0  0  0  0  0  0  0  0  0  0  0
  123.2280  103.5690   86.5250 C   0  0  0  0  0  0  0  0  0  0  0  0
  125.2290  103.4780   85.1010 C   0  0  0  0  0  0  0  0  0  0  0  0
  120.7390  109.4140   89.3870 C   0  0  0  0  0  0  0  0  0  0  0  0
  123.8120  108.4830   87.4510 C   0  0  0  0  0  0  0  0  0  0  0  0
  124.2220  105.6230   85.6670 C   0  0  0  0  0  0  0  0  0  0  0  0
  121.1170  108.8980   86.8990 C   0  0  0  0  0  0  0  0  0  0  0  0
  119.3790  109.8680   88.9190 C   0  0  0  0  0  0  0  0  0  0  0  0
  119.7430  109.3660   86.5490 C   0  0  0  0  0  0  0  0  0  0  0  0
  117.7280  110.2780   87.4830 C   0  0  0  0  0  0  0  0  0  0  0  0
  119.0100  109.8110   87.6090 C   0  0  0  0  0  0  0  0  0  0  0  0
  123.2340  107.7360   86.2600 C   0  0  0  0  0  0  0  0  0  0  0  0
  121.7260  109.3500   88.2090 C   0  0  0  0  0  0  0  0  0  0  0  0
  123.3970  106.3100   86.4500 N   0  0  0  0  0  0  0  0  0  0  0  0
  117.3110  110.6260   88.7130 N   0  0  0  0  0  0  0  0  0  0  0  0
  122.8570  108.4840   88.5600 N   0  0  0  0  0  0  0  0  0  0  0  0
  124.2250  104.2980   85.7590 N   0  0  0  0  0  0  0  0  0  0  0  0
  124.9560  106.1970   84.8810 O   0  0  0  0  0  0  0  0  0  0  0  0
  1  9  1  0  0  0  0
  2 10  1  0  0  0  0
  3 23  1  0  0  0  0
  4 14  1  0  0  0  0
  4 19  1  0  0  0  0
  5  6  4  0  0  0  0
  5  7  4  0  0  0  0
  6 16  4  0  0  0  0
  7 17  4  0  0  0  0
  8 15  4  0  0  0  0
  8 22  4  0  0  0  0
  9 24  1  0  0  0  0
 10 24  1  0  0  0  0
 11 15  1  0  0  0  0
 11 20  1  0  0  0  0
 12 19  1  0  0  0  0
 12 23  1  0  0  0  0
 13 21  1  0  0  0  0
 13 24  1  0  0  0  0
 13 25  2  0  0  0  0
 14 16  1  0  0  0  0
 14 20  1  0  0  0  0
 15 18  4  0  0  0  0
 16 18  4  0  0  0  0
 17 18  4  0  0  0  0
 17 22  4  0  0  0  0
 19 21  1  0  0  0  0
 20 23  1  0  0  0  0
M  END
$$$$
