9EXY
  PyMOL3.1          3D                             0

 31 35  0  0  0  0  0  0  0  0999 V2000
  -34.2640   24.8460  -36.5410 N   0  0  0  0  0  0  0  0  0  0  0  0
  -35.6670   24.0880  -33.2880 C   0  0  0  0  0  0  0  0  0  0  0  0
  -35.2900   24.5820  -35.6070 O   0  0  0  0  0  0  0  0  0  0  0  0
  -34.7380   24.3810  -34.4060 C   0  0  0  0  0  0  0  0  0  0  0  0
  -27.8180   23.0730  -35.5880 N   0  0  0  0  0  0  0  0  0  0  0  0
  -28.6730   25.0910  -28.5190 O   0  0  0  0  0  0  0  0  0  0  0  0
  -33.1440   24.7940  -35.8580 C   0  0  0  0  0  0  0  0  0  0  0  0
  -29.7650   24.0380  -30.1820 N   0  0  0  0  0  0  0  0  0  0  0  0
  -30.3070   26.4900  -31.3450 O   0  0  0  0  0  0  0  0  0  0  0  0
  -31.8270   25.0060  -36.4880 C   0  0  0  0  0  0  0  0  0  0  0  0
  -30.8910   23.9660  -36.3890 C   0  0  0  0  0  0  0  0  0  0  0  0
  -29.6230   24.0680  -36.9480 C   0  0  0  0  0  0  0  0  0  0  0  0
  -28.6280   22.9360  -36.8150 C   0  0  0  0  0  0  0  0  0  0  0  0
  -28.5900   22.7160  -34.3830 C   0  0  0  0  0  0  0  0  0  0  0  0
  -27.7930   22.9690  -33.1100 C   0  0  0  0  0  0  0  0  0  0  0  0
  -26.4750   22.1980  -33.1290 C   0  0  0  0  0  0  0  0  0  0  0  0
  -25.7060   22.4750  -34.4170 C   0  0  0  0  0  0  0  0  0  0  0  0
  -26.5880   22.2490  -35.6420 C   0  0  0  0  0  0  0  0  0  0  0  0
  -29.2990   25.2380  -37.6130 C   0  0  0  0  0  0  0  0  0  0  0  0
  -30.2090   26.2730  -37.7170 C   0  0  0  0  0  0  0  0  0  0  0  0
  -31.4860   26.1910  -37.1620 C   0  0  0  0  0  0  0  0  0  0  0  0
  -32.4380   27.3500  -37.3080 C   0  0  0  0  0  0  0  0  0  0  0  0
  -33.3850   24.4920  -34.4970 C   0  0  0  0  0  0  0  0  0  0  0  0
  -32.4310   24.3480  -33.3770 C   0  0  0  0  0  0  0  0  0  0  0  0
  -32.1740   23.0970  -32.8090 C   0  0  0  0  0  0  0  0  0  0  0  0
  -31.2910   22.9660  -31.7490 C   0  0  0  0  0  0  0  0  0  0  0  0
  -30.6530   24.1010  -31.2550 C   0  0  0  0  0  0  0  0  0  0  0  0
  -29.4490   25.1360  -29.4670 C   0  0  0  0  0  0  0  0  0  0  0  0
  -30.1100   26.4300  -29.9080 C   0  0  0  0  0  0  0  0  0  0  0  0
  -30.9200   25.3540  -31.8190 C   0  0  0  0  0  0  0  0  0  0  0  0
  -31.8000   25.4800  -32.8750 C   0  0  0  0  0  0  0  0  0  0  0  0
  1  3  1  0  0  0  0
  2  4  1  0  0  0  0
  3  4  1  0  0  0  0
  1  7  2  0  0  0  0
  7 10  1  0  0  0  0
 10 11  2  0  0  0  0
 11 12  1  0  0  0  0
  5 13  1  0  0  0  0
 12 13  1  0  0  0  0
  5 14  1  0  0  0  0
 14 15  1  0  0  0  0
 15 16  1  0  0  0  0
 16 17  1  0  0  0  0
  5 18  1  0  0  0  0
 17 18  1  0  0  0  0
 12 19  2  0  0  0  0
 19 20  1  0  0  0  0
 10 21  1  0  0  0  0
 20 21  2  0  0  0  0
 21 22  1  0  0  0  0
  4 23  2  0  0  0  0
  7 23  1  0  0  0  0
 23 24  1  0  0  0  0
 24 25  2  0  0  0  0
 25 26  1  0  0  0  0
  8 27  1  0  0  0  0
 26 27  2  0  0  0  0
  6 28  2  0  0  0  0
  8 28  1  0  0  0  0
  9 29  1  0  0  0  0
 28 29  1  0  0  0  0
  9 30  1  0  0  0  0
 27 30  1  0  0  0  0
 24 31  1  0  0  0  0
 30 31  2  0  0  0  0
M  END
$$$$
