7JVR
  PyMOL3.1          3D                             0

 43 49  0  0  0  0  0  0  0  0999 V2000
  100.3900  132.4070  131.7850 C   0  0  0  0  0  0  0  0  0  0  0  0
  102.4480  131.4830  131.0300 N   0  0  0  0  0  0  0  0  0  0  0  0
  100.5850  130.2000  130.7480 O   0  0  0  0  0  0  0  0  0  0  0  0
  101.0590  131.5490  130.6910 C   0  0  0  0  0  0  0  0  0  0  0  0
  101.1810  133.6420  131.9100 N   0  0  0  0  0  0  0  0  0  0  0  0
  100.8160  132.0870  129.4370 O   0  0  0  0  0  0  0  0  0  0  0  0
  103.2710  132.6800  131.1130 C   0  0  0  0  0  0  0  0  0  0  0  0
  102.0070  128.4170  129.9490 N   0  0  0  0  0  0  0  0  0  0  0  0
  103.9430  129.8730  131.6010 O   0  0  0  0  0  0  0  0  0  0  0  0
   98.9990  132.9260  131.5000 C   0  0  0  0  0  0  0  0  0  0  0  0
  102.8320  127.3590  125.2150 N   0  0  0  0  0  0  0  0  0  0  0  0
  102.9950  134.9330  131.7880 O   0  0  0  0  0  0  0  0  0  0  0  0
  101.6510  129.2770  131.0640 C   0  0  0  0  0  0  0  0  0  0  0  0
  108.6360  127.3620  123.7010 N   0  0  0  0  0  0  0  0  0  0  0  0
  102.2390  130.0680  128.2250 O   0  0  0  0  0  0  0  0  0  0  0  0
  100.2980  134.7480  132.4210 C   0  0  0  0  0  0  0  0  0  0  0  0
   98.9360  134.1910  132.3680 C   0  0  0  0  0  0  0  0  0  0  0  0
  102.8560  130.2200  131.3130 C   0  0  0  0  0  0  0  0  0  0  0  0
  102.4880  133.8550  131.6340 C   0  0  0  0  0  0  0  0  0  0  0  0
  103.9150  133.0640  129.8050 C   0  0  0  0  0  0  0  0  0  0  0  0
  101.2740  128.4310  132.3240 C   0  0  0  0  0  0  0  0  0  0  0  0
  105.4660  133.1300  129.9640 C   0  0  0  0  0  0  0  0  0  0  0  0
   99.8390  127.9580  132.1800 C   0  0  0  0  0  0  0  0  0  0  0  0
  102.2020  127.2150  132.4540 C   0  0  0  0  0  0  0  0  0  0  0  0
  102.3160  128.9340  128.5830 C   0  0  0  0  0  0  0  0  0  0  0  0
  102.8000  127.9020  127.6090 C   0  0  0  0  0  0  0  0  0  0  0  0
  104.1840  127.9280  124.9820 C   0  0  0  0  0  0  0  0  0  0  0  0
  102.1130  128.1000  126.2650 C   0  0  0  0  0  0  0  0  0  0  0  0
  105.9050  134.5840  129.7550 C   0  0  0  0  0  0  0  0  0  0  0  0
  106.1070  132.2570  128.8630 C   0  0  0  0  0  0  0  0  0  0  0  0
  104.9530  128.1600  126.3120 C   0  0  0  0  0  0  0  0  0  0  0  0
  104.3150  128.0440  127.4930 C   0  0  0  0  0  0  0  0  0  0  0  0
  104.9860  126.9650  124.0320 C   0  0  0  0  0  0  0  0  0  0  0  0
  106.4140  128.3510  126.2240 C   0  0  0  0  0  0  0  0  0  0  0  0
  106.4620  127.2380  124.1140 C   0  0  0  0  0  0  0  0  0  0  0  0
  107.0280  127.8630  125.1270 C   0  0  0  0  0  0  0  0  0  0  0  0
  102.0720  127.4210  123.9640 C   0  0  0  0  0  0  0  0  0  0  0  0
  108.3280  127.9390  124.8810 C   0  0  0  0  0  0  0  0  0  0  0  0
  107.4400  126.8990  123.1910 C   0  0  0  0  0  0  0  0  0  0  0  0
  107.1990  128.9830  127.1820 C   0  0  0  0  0  0  0  0  0  0  0  0
  109.1640  128.5540  125.7890 C   0  0  0  0  0  0  0  0  0  0  0  0
  108.5890  129.0830  126.9560 C   0  0  0  0  0  0  0  0  0  0  0  0
  107.1660  125.9930  121.5790 Br  0  0  0  0  0  0  0  0  0  0  0  0
  1  4  1  0  0  0  0
  2  4  1  0  0  0  0
  2  7  1  0  0  0  0
  3  4  1  0  0  0  0
  4  6  1  0  0  0  0
  1  5  1  0  0  0  0
  5 16  1  0  0  0  0
  7 19  1  0  0  0  0
  7 20  1  0  0  0  0
  8 13  1  0  0  0  0
  1 10  1  0  0  0  0
 11 27  1  0  0  0  0
 11 37  1  0  0  0  0
  3 13  1  0  0  0  0
 13 18  1  0  0  0  0
 13 21  1  0  0  0  0
 15 25  2  0  0  0  0
 16 17  1  0  0  0  0
 10 17  1  0  0  0  0
  2 18  1  0  0  0  0
  9 18  2  0  0  0  0
  5 19  1  0  0  0  0
 12 19  2  0  0  0  0
 20 22  1  0  0  0  0
 21 23  1  0  0  0  0
 21 24  1  0  0  0  0
 22 29  1  0  0  0  0
 22 30  1  0  0  0  0
  8 25  1  0  0  0  0
 25 26  1  0  0  0  0
 26 28  1  0  0  0  0
 26 32  1  0  0  0  0
 11 28  1  0  0  0  0
 27 31  1  0  0  0  0
 31 34  1  0  0  0  0
 31 32  1  0  0  0  0
 27 33  1  0  0  0  0
 34 36  4  0  0  0  0
 34 40  4  0  0  0  0
 33 35  1  0  0  0  0
 35 39  4  0  0  0  0
 35 36  4  0  0  0  0
 14 38  4  0  0  0  0
 36 38  4  0  0  0  0
 14 39  4  0  0  0  0
 39 43  1  0  0  0  0
 40 42  4  0  0  0  0
 38 41  4  0  0  0  0
 41 42  4  0  0  0  0
M  END
$$$$
