7JVP
  PyMOL3.1          3D                             0

 22 24  0  0  0  0  0  0  0  0999 V2000
   99.7220   88.6770  116.3480 Cl  0  0  0  0  0  0  0  0  0  0  0  0
   99.1330   86.1680  119.3540 C   0  0  0  0  0  0  0  0  0  0  0  0
  103.7930   85.6660  116.4320 N   0  0  0  0  0  0  0  0  0  0  0  0
   98.1170   85.7900  120.1700 O   0  0  0  0  0  0  0  0  0  0  0  0
   98.9140   87.1250  118.3850 C   0  0  0  0  0  0  0  0  0  0  0  0
   97.6960   87.6970  118.2340 O   0  0  0  0  0  0  0  0  0  0  0  0
  100.3810   85.5920  119.5000 C   0  0  0  0  0  0  0  0  0  0  0  0
   99.9560   87.4940  117.5660 C   0  0  0  0  0  0  0  0  0  0  0  0
  101.4500   85.9480  118.6790 C   0  0  0  0  0  0  0  0  0  0  0  0
  101.2000   86.9220  117.7060 C   0  0  0  0  0  0  0  0  0  0  0  0
  102.8580   85.2940  118.8410 C   0  0  0  0  0  0  0  0  0  0  0  0
  102.2420   87.4390  116.7330 C   0  0  0  0  0  0  0  0  0  0  0  0
  103.3740   84.8030  117.4930 C   0  0  0  0  0  0  0  0  0  0  0  0
  102.7180   86.3460  115.8080 C   0  0  0  0  0  0  0  0  0  0  0  0
  102.8770   84.1510  119.8760 C   0  0  0  0  0  0  0  0  0  0  0  0
  103.3360   84.5040  121.1360 C   0  0  0  0  0  0  0  0  0  0  0  0
  102.4930   82.8270  119.6390 C   0  0  0  0  0  0  0  0  0  0  0  0
  103.4090   83.5780  122.1610 C   0  0  0  0  0  0  0  0  0  0  0  0
  103.0220   82.2740  121.9220 C   0  0  0  0  0  0  0  0  0  0  0  0
  102.5640   81.8990  120.6720 C   0  0  0  0  0  0  0  0  0  0  0  0
  102.1500   80.4690  120.4530 C   0  0  0  0  0  0  0  0  0  0  0  0
  104.4880   84.9450  115.4410 C   0  0  0  0  0  0  0  0  0  0  0  0
  2  4  1  0  0  0  0
  2  5  4  0  0  0  0
  2  7  4  0  0  0  0
  5  6  1  0  0  0  0
  5  8  4  0  0  0  0
  7  9  4  0  0  0  0
  1  8  1  0  0  0  0
  8 10  4  0  0  0  0
  9 10  4  0  0  0  0
  9 11  1  0  0  0  0
 10 12  1  0  0  0  0
 11 13  1  0  0  0  0
 11 15  1  0  0  0  0
 12 14  1  0  0  0  0
  3 13  1  0  0  0  0
  3 14  1  0  0  0  0
 15 16  4  0  0  0  0
 15 17  4  0  0  0  0
 16 18  4  0  0  0  0
 17 20  4  0  0  0  0
 18 19  4  0  0  0  0
 19 20  4  0  0  0  0
 20 21  1  0  0  0  0
  3 22  1  0  0  0  0
M  END
$$$$
