6UWQ
  PyMOL3.1          3D                             0

 26 27  0  0  0  0  0  0  0  0999 V2000
   -8.4870    6.4513   11.7989 C   0  0  0  0  0  0  0  0  0  0  0  0
   -6.9481    6.2923   11.7519 C   0  0  0  0  0  0  0  0  0  0  0  0
   -6.6301    4.9490   11.1426 C   0  0  0  0  0  0  0  0  0  0  0  0
   -6.0904    3.9340   11.8684 C   0  0  0  0  0  0  0  0  0  0  0  0
   -5.7566    4.0668   13.2169 O   0  0  0  0  0  0  0  0  0  0  0  0
   -6.7100    3.5296   14.1843 C   0  0  0  0  0  0  0  0  0  0  0  0
   -6.1684    3.9421   15.5475 C   0  0  0  0  0  0  0  0  0  0  0  0
   -6.2954    5.4548   15.7171 C   0  0  0  0  0  0  0  0  0  0  0  0
   -7.7056    5.7092   15.6638 O   0  0  0  0  0  0  0  0  0  0  0  0
   -8.2117    6.9900   15.6122 C   0  0  0  0  0  0  0  0  0  0  0  0
   -9.5979    7.0590   15.6166 C   0  0  0  0  0  0  0  0  0  0  0  0
  -10.2127    8.2914   15.5688 C   0  0  0  0  0  0  0  0  0  0  0  0
   -9.4446    9.4447   15.5188 C   0  0  0  0  0  0  0  0  0  0  0  0
   -8.0560    9.3905   15.5121 C   0  0  0  0  0  0  0  0  0  0  0  0
   -7.2403   10.6652   15.4514 C   0  0  0  0  0  0  0  0  0  0  0  0
   -5.7166   10.4944   15.5894 C   0  0  0  0  0  0  0  0  0  0  0  0
   -5.1199   11.7621   16.3219 C   0  0  0  0  0  0  0  0  0  0  0  0
   -3.8806   11.7945   16.4335 O   0  0  0  0  0  0  0  0  0  0  0  0
   -5.9679   12.5925   16.7122 O   0  0  0  0  0  0  0  0  0  0  0  0
   -7.4380    8.1351   15.5586 C   0  0  0  0  0  0  0  0  0  0  0  0
   -5.8408    2.7113   11.1981 C   0  0  0  0  0  0  0  0  0  0  0  0
   -5.2990    1.6744   11.8687 N   0  0  0  0  0  0  0  0  0  0  0  0
   -6.1378    2.5498    9.9075 N   0  0  0  0  0  0  0  0  0  0  0  0
   -6.6800    3.5950    9.2790 C   0  0  0  0  0  0  0  0  0  0  0  0
   -6.9867    3.4471    7.9713 N   0  0  0  0  0  0  0  0  0  0  0  0
   -6.9388    4.7631    9.8497 N   0  0  0  0  0  0  0  0  0  0  0  0
  1  2  1  0  0  0  0
  2  3  1  0  0  0  0
  3  4  2  0  0  0  0
  4  5  1  0  0  0  0
  5  6  1  0  0  0  0
  6  7  1  0  0  0  0
  7  8  1  0  0  0  0
  8  9  1  0  0  0  0
  9 10  1  0  0  0  0
 10 11  1  0  0  0  0
 11 12  2  0  0  0  0
 12 13  1  0  0  0  0
 13 14  2  0  0  0  0
 14 15  1  0  0  0  0
 15 16  1  0  0  0  0
 16 17  1  0  0  0  0
 17 18  2  0  0  0  0
 17 19  1  0  0  0  0
 10 20  2  0  0  0  0
 14 20  1  0  0  0  0
  4 21  1  0  0  0  0
 21 22  1  0  0  0  0
 21 23  2  0  0  0  0
 23 24  1  0  0  0  0
 24 25  1  0  0  0  0
  3 26  1  0  0  0  0
 24 26  2  0  0  0  0
M  END
$$$$
