7DXG
  PyMOL3.1          3D                             0

 26 29  0  0  0  0  0  0  0  0999 V2000
  154.4610  182.2030  154.9220 N   0  0  0  0  0  0  0  0  0  0  0  0
  155.3880  181.1320  154.5150 C   0  0  0  0  0  0  0  0  0  0  0  0
  156.6900  181.6260  152.5450 O   0  0  0  0  0  0  0  0  0  0  0  0
  155.5850  181.7250  149.7020 Cl  0  0  0  0  0  0  0  0  0  0  0  0
  156.7310  181.6480  153.9690 C   0  0  0  0  0  0  0  0  0  0  0  0
  150.7340  182.0180  155.3550 N   0  0  0  0  0  0  0  0  0  0  0  0
  155.6260  180.1440  155.6710 C   0  0  0  0  0  0  0  0  0  0  0  0
  159.6560  186.1540  148.7450 N   0  0  0  0  0  0  0  0  0  0  0  0
  153.1120  181.6160  154.9660 C   0  0  0  0  0  0  0  0  0  0  0  0
  154.4960  183.3140  153.9580 C   0  0  0  0  0  0  0  0  0  0  0  0
  152.0700  182.6420  155.3930 C   0  0  0  0  0  0  0  0  0  0  0  0
  153.5080  184.3990  154.3660 C   0  0  0  0  0  0  0  0  0  0  0  0
  157.6890  180.6500  154.4720 C   0  0  0  0  0  0  0  0  0  0  0  0
  152.1010  183.8240  154.4350 C   0  0  0  0  0  0  0  0  0  0  0  0
  157.0670  179.7740  155.4600 C   0  0  0  0  0  0  0  0  0  0  0  0
  159.0160  180.4810  154.1180 C   0  0  0  0  0  0  0  0  0  0  0  0
  157.7860  178.7560  156.0620 C   0  0  0  0  0  0  0  0  0  0  0  0
  159.7190  179.4500  154.7410 C   0  0  0  0  0  0  0  0  0  0  0  0
  159.1210  178.6110  155.6880 C   0  0  0  0  0  0  0  0  0  0  0  0
  157.3150  182.5710  151.7770 C   0  0  0  0  0  0  0  0  0  0  0  0
  156.9040  182.7490  150.3670 C   0  0  0  0  0  0  0  0  0  0  0  0
  158.3330  183.3580  152.2920 C   0  0  0  0  0  0  0  0  0  0  0  0
  157.5450  183.7030  149.5950 C   0  0  0  0  0  0  0  0  0  0  0  0
  158.9510  184.3080  151.4730 C   0  0  0  0  0  0  0  0  0  0  0  0
  158.5580  184.4730  150.1390 C   0  0  0  0  0  0  0  0  0  0  0  0
  159.1350  185.3570  149.4070 C   0  0  0  0  0  0  0  0  0  0  0  0
  1  2  1  0  0  0  0
  2  5  1  0  0  0  0
  3  5  1  0  0  0  0
  2  7  1  0  0  0  0
  1  9  1  0  0  0  0
  1 10  1  0  0  0  0
  6 11  1  0  0  0  0
  9 11  1  0  0  0  0
 10 12  1  0  0  0  0
  5 13  1  0  0  0  0
 11 14  1  0  0  0  0
 12 14  1  0  0  0  0
  7 15  1  0  0  0  0
 13 15  1  0  0  0  0
 13 16  2  0  0  0  0
 15 17  2  0  0  0  0
 16 18  1  0  0  0  0
 17 19  1  0  0  0  0
 18 19  2  0  0  0  0
  3 20  1  0  0  0  0
  4 21  1  0  0  0  0
 20 21  2  0  0  0  0
 20 22  1  0  0  0  0
 21 23  1  0  0  0  0
 22 24  2  0  0  0  0
 23 25  2  0  0  0  0
 24 25  1  0  0  0  0
  8 26  3  0  0  0  0
 25 26  1  0  0  0  0
M  END
$$$$
