8EWA
  PyMOL3.1          3D                             0

 40 44  0  0  0  0  0  0  0  0999 V2000
   17.6886  -11.7225   23.0805 C   0  0  0  0  0  0  0  0  0  0  0  0
   17.0199  -11.8170   21.7962 N   0  0  0  0  0  0  0  0  0  0  0  0
   16.6394  -12.8170   20.9698 C   0  0  0  0  0  0  0  0  0  0  0  0
   16.8148  -14.3224   21.2129 C   0  0  0  0  0  0  0  0  0  0  0  0
   16.0288  -14.7602   22.4734 C   0  0  0  0  0  0  0  0  0  0  0  0
   18.3062  -14.6688   21.4467 C   0  0  0  0  0  0  0  0  0  0  0  0
   16.3580  -15.1405   19.9973 C   0  0  0  0  0  0  0  0  0  0  0  0
   16.0353  -12.2083   19.8881 C   0  0  0  0  0  0  0  0  0  0  0  0
   16.1056  -10.8088   20.1438 C   0  0  0  0  0  0  0  0  0  0  0  0
   15.6349   -9.7917   19.3121 N   0  0  0  0  0  0  0  0  0  0  0  0
   14.9893   -9.7049   18.1210 C   0  0  0  0  0  0  0  0  0  0  0  0
   14.4691   -8.5176   17.5889 C   0  0  0  0  0  0  0  0  0  0  0  0
   13.8621   -8.6363   16.3430 C   0  0  0  0  0  0  0  0  0  0  0  0
   13.4333   -7.4186   15.9939 N   0  0  0  0  0  0  0  0  0  0  0  0
   13.7496   -6.4750   16.9831 N   0  0  0  0  0  0  0  0  0  0  0  0
   14.3725   -7.1258   17.9218 C   0  0  0  0  0  0  0  0  0  0  0  0
   13.7101   -9.7520   15.6311 N   0  0  0  0  0  0  0  0  0  0  0  0
   14.2305  -10.8262   16.2253 C   0  0  0  0  0  0  0  0  0  0  0  0
   14.1011  -11.9850   15.5565 N   0  0  0  0  0  0  0  0  0  0  0  0
   14.6141  -13.2551   16.0463 C   0  0  0  0  0  0  0  0  0  0  0  0
   16.0355  -13.3644   15.5092 C   0  0  0  0  0  0  0  0  0  0  0  0
   16.9048  -14.2868   16.0913 C   0  0  0  0  0  0  0  0  0  0  0  0
   18.2034  -14.3960   15.6264 C   0  0  0  0  0  0  0  0  0  0  0  0
   18.6538  -13.5910   14.5854 C   0  0  0  0  0  0  0  0  0  0  0  0
   17.7971  -12.6631   14.0178 C   0  0  0  0  0  0  0  0  0  0  0  0
   16.4988  -12.5559   14.4826 C   0  0  0  0  0  0  0  0  0  0  0  0
   13.6405  -14.3169   15.5629 C   0  0  0  0  0  0  0  0  0  0  0  0
   14.0196  -15.5123   16.2741 O   0  0  0  0  0  0  0  0  0  0  0  0
   13.3237  -16.6346   15.9903 C   0  0  0  0  0  0  0  0  0  0  0  0
   14.0082  -17.7604   16.2946 N   0  0  0  0  0  0  0  0  0  0  0  0
   13.5893  -19.1007   15.8811 C   0  0  0  0  0  0  0  0  0  0  0  0
   13.2319  -19.7842   17.1926 C   0  0  0  0  0  0  0  0  0  0  0  0
   12.5408  -21.1355   17.0347 C   0  0  0  0  0  0  0  0  0  0  0  0
   11.0989  -20.8620   16.8853 N   0  0  0  0  0  0  0  0  0  0  0  0
   14.4885  -19.9545   17.9023 O   0  0  0  0  0  0  0  0  0  0  0  0
   15.0722  -18.6861   18.3071 C   0  0  0  0  0  0  0  0  0  0  0  0
   15.2199  -17.7189   17.1280 C   0  0  0  0  0  0  0  0  0  0  0  0
   12.2111  -16.5823   15.5001 O   0  0  0  0  0  0  0  0  0  0  0  0
   14.8674  -10.8438   17.4146 N   0  0  0  0  0  0  0  0  0  0  0  0
   16.7042  -10.5711   21.2665 N   0  0  0  0  0  0  0  0  0  0  0  0
  1  2  1  0  0  0  0
  2  3  1  0  0  0  0
  3  4  1  0  0  0  0
  4  5  1  0  0  0  0
  4  6  1  0  0  0  0
  4  7  1  0  0  0  0
  3  8  2  0  0  0  0
  8  9  1  0  0  0  0
  9 10  1  0  0  0  0
 10 11  1  0  0  0  0
 11 12  1  0  0  0  0
 12 13  2  0  0  0  0
 13 14  1  0  0  0  0
 14 15  1  0  0  0  0
 12 16  1  0  0  0  0
 15 16  2  0  0  0  0
 13 17  1  0  0  0  0
 17 18  2  0  0  0  0
 18 19  1  0  0  0  0
 19 20  1  0  0  0  0
 20 21  1  0  0  0  0
 21 22  2  0  0  0  0
 22 23  1  0  0  0  0
 23 24  2  0  0  0  0
 24 25  1  0  0  0  0
 21 26  1  0  0  0  0
 25 26  2  0  0  0  0
 20 27  1  0  0  0  0
 27 28  1  0  0  0  0
 28 29  1  0  0  0  0
 29 30  1  0  0  0  0
 30 31  1  0  0  0  0
 31 32  1  0  0  0  0
 32 33  1  0  0  0  0
 33 34  1  0  0  0  0
 32 35  1  0  0  0  0
 35 36  1  0  0  0  0
 30 37  1  0  0  0  0
 36 37  1  0  0  0  0
 29 38  2  0  0  0  0
 11 39  2  0  0  0  0
 18 39  1  0  0  0  0
  2 40  1  0  0  0  0
  9 40  2  0  0  0  0
M  END
$$$$
