8TGD
  PyMOL3.1          3D                             0

 28 30  0  0  0  0  0  0  0  0999 V2000
   22.6050   11.1170  144.4850 C   0  0  0  0  0  0  0  0  0  0  0  0
   26.7660   10.7400  143.4530 N   0  0  0  0  0  0  0  0  0  0  0  0
   25.3810    8.6670  144.7710 O   0  0  0  0  0  0  0  0  0  0  0  0
   23.5700   10.0540  144.7920 C   0  0  0  0  0  0  0  0  0  0  0  0
   28.3370   12.4340  143.9660 N   0  0  0  0  0  0  0  0  0  0  0  0
   26.2270   12.9490  143.1160 O   0  0  0  0  0  0  0  0  0  0  0  0
   24.7270    9.7200  144.1540 C   0  0  0  0  0  0  0  0  0  0  0  0
   29.3620   15.9510  143.2260 N   0  0  0  0  0  0  0  0  0  0  0  0
   24.5740    8.2930  145.8060 C   0  0  0  0  0  0  0  0  0  0  0  0
   29.8020   17.6590  144.8070 N   0  0  0  0  0  0  0  0  0  0  0  0
   24.7950    7.2450  146.6910 C   0  0  0  0  0  0  0  0  0  0  0  0
   29.2010   15.5830  145.6710 N   0  0  0  0  0  0  0  0  0  0  0  0
   23.8810    7.0300  147.6830 C   0  0  0  0  0  0  0  0  0  0  0  0
   22.7660    7.8610  147.7550 C   0  0  0  0  0  0  0  0  0  0  0  0
   22.5080    8.8980  146.8710 C   0  0  0  0  0  0  0  0  0  0  0  0
   23.4410    9.1100  145.8820 C   0  0  0  0  0  0  0  0  0  0  0  0
   25.4820   10.2740  142.9990 C   0  0  0  0  0  0  0  0  0  0  0  0
   27.0540   12.1170  143.4830 C   0  0  0  0  0  0  0  0  0  0  0  0
   28.7390   13.7840  144.1090 C   0  0  0  0  0  0  0  0  0  0  0  0
   29.0070   14.6560  143.0390 C   0  0  0  0  0  0  0  0  0  0  0  0
   29.4370   16.3680  144.5580 C   0  0  0  0  0  0  0  0  0  0  0  0
   28.8470   14.3230  145.4060 C   0  0  0  0  0  0  0  0  0  0  0  0
   25.7670    9.0730  142.0040 C   0  0  0  0  0  0  0  0  0  0  0  0
   25.8640    6.5000  146.6030 F   0  0  0  0  0  0  0  0  0  0  0  0
   21.9120    7.6320  148.7350 F   0  0  0  0  0  0  0  0  0  0  0  0
   24.6630    8.3800  141.6810 F   0  0  0  0  0  0  0  0  0  0  0  0
   26.2700    9.4850  140.8400 F   0  0  0  0  0  0  0  0  0  0  0  0
   26.6520    8.1850  142.4940 F   0  0  0  0  0  0  0  0  0  0  0  0
  1  4  1  0  0  0  0
  3  7  1  0  0  0  0
  4  7  2  0  0  0  0
  3  9  1  0  0  0  0
  9 11  1  0  0  0  0
 11 13  2  0  0  0  0
 13 14  1  0  0  0  0
 14 15  2  0  0  0  0
  4 16  1  0  0  0  0
  9 16  2  0  0  0  0
 15 16  1  0  0  0  0
  2 17  1  0  0  0  0
  7 17  1  0  0  0  0
  2 18  1  0  0  0  0
  5 18  1  0  0  0  0
  6 18  2  0  0  0  0
  5 19  1  0  0  0  0
  8 20  2  0  0  0  0
 19 20  1  0  0  0  0
  8 21  1  0  0  0  0
 10 21  1  0  0  0  0
 12 21  2  0  0  0  0
 12 22  1  0  0  0  0
 19 22  2  0  0  0  0
 17 23  1  0  0  0  0
 11 24  1  0  0  0  0
 14 25  1  0  0  0  0
 23 26  1  0  0  0  0
 23 27  1  0  0  0  0
 23 28  1  0  0  0  0
M  END
$$$$
