8BHA
  PyMOL3.1          3D                             0

 51 54  0  0  0  0  0  0  0  0999 V2000
  194.3020  162.6450  194.4510 N   0  0  0  0  0  0  0  0  0  0  0  0
  196.1350  164.9410  192.3230 C   0  0  0  0  0  0  0  0  0  0  0  0
  194.9790  163.8420  194.1260 O   0  0  0  0  0  0  0  0  0  0  0  0
  195.3940  163.7670  192.8450 C   0  0  0  0  0  0  0  0  0  0  0  0
  197.1530  159.8940  189.2120 N   0  0  0  0  0  0  0  0  0  0  0  0
  196.1380  160.9390  191.0120 O   0  0  0  0  0  0  0  0  0  0  0  0
  195.0240  162.5810  192.3080 C   0  0  0  0  0  0  0  0  0  0  0  0
  195.0480  157.0920  186.0560 N   0  0  0  0  0  0  0  0  0  0  0  0
  196.7920  156.1490  187.1060 O   0  0  0  0  0  0  0  0  0  0  0  0
  194.3400  161.9190  193.3680 C   0  0  0  0  0  0  0  0  0  0  0  0
  191.0520  155.6770  185.1930 O   0  0  0  0  0  0  0  0  0  0  0  0
  193.7020  160.5880  193.3870 C   0  0  0  0  0  0  0  0  0  0  0  0
  192.3580  156.8980  183.4980 O   0  0  0  0  0  0  0  0  0  0  0  0
  192.3400  160.4580  193.6340 C   0  0  0  0  0  0  0  0  0  0  0  0
  191.7290  159.2160  193.6200 C   0  0  0  0  0  0  0  0  0  0  0  0
  192.5030  158.1190  193.3590 C   0  0  0  0  0  0  0  0  0  0  0  0
  193.8480  158.1920  193.1180 C   0  0  0  0  0  0  0  0  0  0  0  0
  194.4480  159.4400  193.1360 C   0  0  0  0  0  0  0  0  0  0  0  0
  195.2580  162.0550  190.9250 C   0  0  0  0  0  0  0  0  0  0  0  0
  196.0980  160.0350  190.0000 C   0  0  0  0  0  0  0  0  0  0  0  0
  197.0810  158.9450  188.2650 C   0  0  0  0  0  0  0  0  0  0  0  0
  195.9790  158.1220  188.0750 C   0  0  0  0  0  0  0  0  0  0  0  0
  194.8910  158.3140  188.9140 C   0  0  0  0  0  0  0  0  0  0  0  0
  194.9310  159.2820  189.8980 C   0  0  0  0  0  0  0  0  0  0  0  0
  195.9690  157.0430  187.0400 C   0  0  0  0  0  0  0  0  0  0  0  0
  194.0290  158.1270  185.8480 C   0  0  0  0  0  0  0  0  0  0  0  0
  192.5980  157.6270  185.9960 C   0  0  0  0  0  0  0  0  0  0  0  0
  193.6300  155.2600  185.0870 C   0  0  0  0  0  0  0  0  0  0  0  0
  194.9450  156.0300  185.0510 C   0  0  0  0  0  0  0  0  0  0  0  0
  191.9060  156.8970  193.3310 F   0  0  0  0  0  0  0  0  0  0  0  0
  192.2680  156.3500  184.8240 S   0  0  0  0  0  0  0  0  0  0  0  0
  195.5030  165.5320  191.6620 H   0  0  0  0  0  0  0  0  0  0  0  0
  196.5050  165.5990  193.1070 H   0  0  0  0  0  0  0  0  0  0  0  0
  196.9920  164.6120  191.7390 H   0  0  0  0  0  0  0  0  0  0  0  0
  191.7460  161.3460  193.8420 H   0  0  0  0  0  0  0  0  0  0  0  0
  190.6640  159.1250  193.8150 H   0  0  0  0  0  0  0  0  0  0  0  0
  194.4370  157.3010  192.9170 H   0  0  0  0  0  0  0  0  0  0  0  0
  195.5180  159.5220  192.9540 H   0  0  0  0  0  0  0  0  0  0  0  0
  195.7080  162.8300  190.3100 H   0  0  0  0  0  0  0  0  0  0  0  0
  194.3070  161.7820  190.4700 H   0  0  0  0  0  0  0  0  0  0  0  0
  197.9700  158.8630  187.6420 H   0  0  0  0  0  0  0  0  0  0  0  0
  194.0000  157.7010  188.7950 H   0  0  0  0  0  0  0  0  0  0  0  0
  194.0860  159.4550  190.5610 H   0  0  0  0  0  0  0  0  0  0  0  0
  194.1320  158.5330  184.8430 H   0  0  0  0  0  0  0  0  0  0  0  0
  194.1920  159.0020  186.4710 H   0  0  0  0  0  0  0  0  0  0  0  0
  192.4460  157.3030  187.0240 H   0  0  0  0  0  0  0  0  0  0  0  0
  191.9030  158.4610  185.9310 H   0  0  0  0  0  0  0  0  0  0  0  0
  193.5520  154.6560  185.9890 H   0  0  0  0  0  0  0  0  0  0  0  0
  193.6700  154.4780  184.3320 H   0  0  0  0  0  0  0  0  0  0  0  0
  195.7710  155.3280  185.1520 H   0  0  0  0  0  0  0  0  0  0  0  0
  195.0740  156.4700  184.0640 H   0  0  0  0  0  0  0  0  0  0  0  0
  1  3  1  0  0  0  0
  2  4  1  0  0  0  0
  3  4  1  0  0  0  0
  4  7  2  0  0  0  0
  1 10  2  0  0  0  0
  7 10  1  0  0  0  0
 10 12  1  0  0  0  0
 12 14  1  0  0  0  0
 14 15  2  0  0  0  0
 15 16  1  0  0  0  0
 16 17  2  0  0  0  0
 12 18  2  0  0  0  0
 17 18  1  0  0  0  0
  6 19  1  0  0  0  0
  7 19  1  0  0  0  0
  5 20  1  0  0  0  0
  6 20  1  0  0  0  0
  5 21  2  0  0  0  0
 21 22  1  0  0  0  0
 22 23  2  0  0  0  0
 20 24  2  0  0  0  0
 23 24  1  0  0  0  0
  8 25  1  0  0  0  0
  9 25  2  0  0  0  0
 22 25  1  0  0  0  0
  8 26  1  0  0  0  0
 26 27  1  0  0  0  0
  8 29  1  0  0  0  0
 28 29  1  0  0  0  0
 16 30  1  0  0  0  0
 11 31  2  0  0  0  0
 13 31  2  0  0  0  0
 27 31  1  0  0  0  0
 28 31  1  0  0  0  0
  2 32  1  0  0  0  0
  2 33  1  0  0  0  0
  2 34  1  0  0  0  0
 14 35  1  0  0  0  0
 15 36  1  0  0  0  0
 17 37  1  0  0  0  0
 18 38  1  0  0  0  0
 19 39  1  0  0  0  0
 19 40  1  0  0  0  0
 21 41  1  0  0  0  0
 23 42  1  0  0  0  0
 24 43  1  0  0  0  0
 26 44  1  0  0  0  0
 26 45  1  0  0  0  0
 27 46  1  0  0  0  0
 27 47  1  0  0  0  0
 28 48  1  0  0  0  0
 28 49  1  0  0  0  0
 29 50  1  0  0  0  0
 29 51  1  0  0  0  0
M  END
$$$$
