8BHA
  PyMOL3.1          3D                             0

 51 54  0  0  0  0  0  0  0  0999 V2000
  145.3930  160.5350  194.4530 N   0  0  0  0  0  0  0  0  0  0  0  0
  145.2610  157.6000  192.3250 C   0  0  0  0  0  0  0  0  0  0  0  0
  145.5490  159.1690  194.1280 O   0  0  0  0  0  0  0  0  0  0  0  0
  145.1690  158.9860  192.8470 C   0  0  0  0  0  0  0  0  0  0  0  0
  141.4700  161.0840  189.2120 N   0  0  0  0  0  0  0  0  0  0  0  0
  142.9040  160.8350  191.0130 O   0  0  0  0  0  0  0  0  0  0  0  0
  144.7710  160.1630  192.3090 C   0  0  0  0  0  0  0  0  0  0  0  0
  141.5260  164.5870  186.0560 N   0  0  0  0  0  0  0  0  0  0  0  0
  139.5600  164.3240  187.1050 O   0  0  0  0  0  0  0  0  0  0  0  0
  144.9350  161.1010  193.3690 C   0  0  0  0  0  0  0  0  0  0  0  0
  143.9260  168.0800  185.1930 O   0  0  0  0  0  0  0  0  0  0  0  0
  144.6680  162.5520  193.3880 C   0  0  0  0  0  0  0  0  0  0  0  0
  143.5880  166.3250  183.4970 O   0  0  0  0  0  0  0  0  0  0  0  0
  145.6940  163.4580  193.6340 C   0  0  0  0  0  0  0  0  0  0  0  0
  145.4570  164.8220  193.6210 C   0  0  0  0  0  0  0  0  0  0  0  0
  144.1860  165.2540  193.3590 C   0  0  0  0  0  0  0  0  0  0  0  0
  143.1420  164.4040  193.1180 C   0  0  0  0  0  0  0  0  0  0  0  0
  143.3910  163.0420  193.1360 C   0  0  0  0  0  0  0  0  0  0  0  0
  144.2730  160.4500  190.9270 C   0  0  0  0  0  0  0  0  0  0  0  0
  142.4060  161.5890  190.0000 C   0  0  0  0  0  0  0  0  0  0  0  0
  140.9710  161.8930  188.2650 C   0  0  0  0  0  0  0  0  0  0  0  0
  141.3780  163.2070  188.0740 C   0  0  0  0  0  0  0  0  0  0  0  0
  142.3700  163.6920  188.9140 C   0  0  0  0  0  0  0  0  0  0  0  0
  142.9070  162.8850  189.8980 C   0  0  0  0  0  0  0  0  0  0  0  0
  140.7520  164.0850  187.0400 C   0  0  0  0  0  0  0  0  0  0  0  0
  142.9580  164.3490  185.8480 C   0  0  0  0  0  0  0  0  0  0  0  0
  143.8220  165.5950  185.9960 C   0  0  0  0  0  0  0  0  0  0  0  0
  141.5960  166.9020  185.0860 C   0  0  0  0  0  0  0  0  0  0  0  0
  140.9850  165.5060  185.0500 C   0  0  0  0  0  0  0  0  0  0  0  0
  143.9510  166.5930  193.3310 F   0  0  0  0  0  0  0  0  0  0  0  0
  143.3380  166.8210  184.8230 S   0  0  0  0  0  0  0  0  0  0  0  0
  146.1200  157.4940  191.6650 H   0  0  0  0  0  0  0  0  0  0  0  0
  145.3480  156.8500  193.1090 H   0  0  0  0  0  0  0  0  0  0  0  0
  144.3730  157.3620  191.7410 H   0  0  0  0  0  0  0  0  0  0  0  0
  146.6960  163.0890  193.8440 H   0  0  0  0  0  0  0  0  0  0  0  0
  146.2650  165.5220  193.8160 H   0  0  0  0  0  0  0  0  0  0  0  0
  142.1420  164.7790  192.9170 H   0  0  0  0  0  0  0  0  0  0  0  0
  142.5720  162.3470  192.9540 H   0  0  0  0  0  0  0  0  0  0  0  0
  144.3650  159.5580  190.3120 H   0  0  0  0  0  0  0  0  0  0  0  0
  144.8810  161.2300  190.4710 H   0  0  0  0  0  0  0  0  0  0  0  0
  140.2030  161.4360  187.6420 H   0  0  0  0  0  0  0  0  0  0  0  0
  142.7310  164.7110  188.7940 H   0  0  0  0  0  0  0  0  0  0  0  0
  143.6920  163.2420  190.5620 H   0  0  0  0  0  0  0  0  0  0  0  0
  143.1140  163.9590  184.8430 H   0  0  0  0  0  0  0  0  0  0  0  0
  143.3410  163.5450  186.4720 H   0  0  0  0  0  0  0  0  0  0  0  0
  143.7550  165.9460  187.0240 H   0  0  0  0  0  0  0  0  0  0  0  0
  144.8750  165.3290  185.9310 H   0  0  0  0  0  0  0  0  0  0  0  0
  141.3040  167.4370  185.9880 H   0  0  0  0  0  0  0  0  0  0  0  0
  141.1040  167.5110  184.3300 H   0  0  0  0  0  0  0  0  0  0  0  0
  139.9040  165.5890  185.1510 H   0  0  0  0  0  0  0  0  0  0  0  0
  141.1400  165.0740  184.0630 H   0  0  0  0  0  0  0  0  0  0  0  0
  1  3  1  0  0  0  0
  2  4  1  0  0  0  0
  3  4  1  0  0  0  0
  4  7  2  0  0  0  0
  1 10  2  0  0  0  0
  7 10  1  0  0  0  0
 10 12  1  0  0  0  0
 12 14  1  0  0  0  0
 14 15  2  0  0  0  0
 15 16  1  0  0  0  0
 16 17  2  0  0  0  0
 12 18  2  0  0  0  0
 17 18  1  0  0  0  0
  6 19  1  0  0  0  0
  7 19  1  0  0  0  0
  5 20  1  0  0  0  0
  6 20  1  0  0  0  0
  5 21  2  0  0  0  0
 21 22  1  0  0  0  0
 22 23  2  0  0  0  0
 20 24  2  0  0  0  0
 23 24  1  0  0  0  0
  8 25  1  0  0  0  0
  9 25  2  0  0  0  0
 22 25  1  0  0  0  0
  8 26  1  0  0  0  0
 26 27  1  0  0  0  0
  8 29  1  0  0  0  0
 28 29  1  0  0  0  0
 16 30  1  0  0  0  0
 11 31  2  0  0  0  0
 13 31  2  0  0  0  0
 27 31  1  0  0  0  0
 28 31  1  0  0  0  0
  2 32  1  0  0  0  0
  2 33  1  0  0  0  0
  2 34  1  0  0  0  0
 14 35  1  0  0  0  0
 15 36  1  0  0  0  0
 17 37  1  0  0  0  0
 18 38  1  0  0  0  0
 19 39  1  0  0  0  0
 19 40  1  0  0  0  0
 21 41  1  0  0  0  0
 23 42  1  0  0  0  0
 24 43  1  0  0  0  0
 26 44  1  0  0  0  0
 26 45  1  0  0  0  0
 27 46  1  0  0  0  0
 27 47  1  0  0  0  0
 28 48  1  0  0  0  0
 28 49  1  0  0  0  0
 29 50  1  0  0  0  0
 29 51  1  0  0  0  0
M  END
$$$$
