8BHA
  PyMOL3.1          3D                             0

 51 54  0  0  0  0  0  0  0  0999 V2000
  183.7460  190.9610  194.4660 N   0  0  0  0  0  0  0  0  0  0  0  0
  182.1310  193.4140  192.3370 C   0  0  0  0  0  0  0  0  0  0  0  0
  182.8170  191.9750  194.1410 O   0  0  0  0  0  0  0  0  0  0  0  0
  183.0180  192.3460  192.8600 C   0  0  0  0  0  0  0  0  0  0  0  0
  187.2450  192.8190  189.2260 N   0  0  0  0  0  0  0  0  0  0  0  0
  185.9380  192.1780  191.0260 O   0  0  0  0  0  0  0  0  0  0  0  0
  184.0310  191.6270  192.3220 C   0  0  0  0  0  0  0  0  0  0  0  0
  189.2580  189.9500  186.0710 N   0  0  0  0  0  0  0  0  0  0  0  0
  190.6940  191.3160  187.1210 O   0  0  0  0  0  0  0  0  0  0  0  0
  184.4490  190.7720  193.3820 C   0  0  0  0  0  0  0  0  0  0  0  0
  189.3650  185.7120  185.2080 O   0  0  0  0  0  0  0  0  0  0  0  0
  185.5170  189.7540  193.4020 C   0  0  0  0  0  0  0  0  0  0  0  0
  188.6090  187.3310  183.5130 O   0  0  0  0  0  0  0  0  0  0  0  0
  185.2180  188.4180  193.6480 C   0  0  0  0  0  0  0  0  0  0  0  0
  186.2100  187.4520  193.6350 C   0  0  0  0  0  0  0  0  0  0  0  0
  187.4930  187.8490  193.3740 C   0  0  0  0  0  0  0  0  0  0  0  0
  187.8390  189.1500  193.1330 C   0  0  0  0  0  0  0  0  0  0  0  0
  186.8390  190.1070  193.1510 C   0  0  0  0  0  0  0  0  0  0  0  0
  184.6040  191.6860  190.9400 C   0  0  0  0  0  0  0  0  0  0  0  0
  186.7840  191.8600  190.0140 C   0  0  0  0  0  0  0  0  0  0  0  0
  188.1250  192.4560  188.2790 C   0  0  0  0  0  0  0  0  0  0  0  0
  188.5670  191.1540  188.0890 C   0  0  0  0  0  0  0  0  0  0  0  0
  188.0470  190.1790  188.9290 C   0  0  0  0  0  0  0  0  0  0  0  0
  187.1390  190.5170  189.9120 C   0  0  0  0  0  0  0  0  0  0  0  0
  189.5890  190.8110  187.0550 C   0  0  0  0  0  0  0  0  0  0  0  0
  187.9580  189.3010  185.8630 C   0  0  0  0  0  0  0  0  0  0  0  0
  187.9910  187.7860  186.0110 C   0  0  0  0  0  0  0  0  0  0  0  0
  190.5600  188.0340  185.1020 C   0  0  0  0  0  0  0  0  0  0  0  0
  190.2360  189.5230  185.0660 C   0  0  0  0  0  0  0  0  0  0  0  0
  188.4700  186.9030  193.3460 F   0  0  0  0  0  0  0  0  0  0  0  0
  189.1020  187.0770  184.8390 S   0  0  0  0  0  0  0  0  0  0  0  0
  181.3730  192.9960  191.6770 H   0  0  0  0  0  0  0  0  0  0  0  0
  181.6190  193.9700  193.1210 H   0  0  0  0  0  0  0  0  0  0  0  0
  182.7100  194.1280  191.7540 H   0  0  0  0  0  0  0  0  0  0  0  0
  184.1900  188.1280  193.8570 H   0  0  0  0  0  0  0  0  0  0  0  0
  185.9670  186.4120  193.8300 H   0  0  0  0  0  0  0  0  0  0  0  0
  188.8690  189.4340  192.9320 H   0  0  0  0  0  0  0  0  0  0  0  0
  187.0930  191.1500  192.9680 H   0  0  0  0  0  0  0  0  0  0  0  0
  184.0060  192.3550  190.3250 H   0  0  0  0  0  0  0  0  0  0  0  0
  184.5690  190.6980  190.4850 H   0  0  0  0  0  0  0  0  0  0  0  0
  188.4780  193.2770  187.6570 H   0  0  0  0  0  0  0  0  0  0  0  0
  188.3540  189.1420  188.8090 H   0  0  0  0  0  0  0  0  0  0  0  0
  186.7130  189.7670  190.5760 H   0  0  0  0  0  0  0  0  0  0  0  0
  187.6040  189.5250  184.8580 H   0  0  0  0  0  0  0  0  0  0  0  0
  187.1770  189.7270  186.4860 H   0  0  0  0  0  0  0  0  0  0  0  0
  188.2510  187.5410  187.0390 H   0  0  0  0  0  0  0  0  0  0  0  0
  186.9820  187.3830  185.9460 H   0  0  0  0  0  0  0  0  0  0  0  0
  191.1100  187.7730  186.0040 H   0  0  0  0  0  0  0  0  0  0  0  0
  191.3160  187.8300  184.3470 H   0  0  0  0  0  0  0  0  0  0  0  0
  191.1590  190.0900  185.1670 H   0  0  0  0  0  0  0  0  0  0  0  0
  189.8570  189.7810  184.0790 H   0  0  0  0  0  0  0  0  0  0  0  0
  1  3  1  0  0  0  0
  2  4  1  0  0  0  0
  3  4  1  0  0  0  0
  4  7  2  0  0  0  0
  1 10  2  0  0  0  0
  7 10  1  0  0  0  0
 10 12  1  0  0  0  0
 12 14  1  0  0  0  0
 14 15  2  0  0  0  0
 15 16  1  0  0  0  0
 16 17  2  0  0  0  0
 12 18  2  0  0  0  0
 17 18  1  0  0  0  0
  6 19  1  0  0  0  0
  7 19  1  0  0  0  0
  5 20  1  0  0  0  0
  6 20  1  0  0  0  0
  5 21  2  0  0  0  0
 21 22  1  0  0  0  0
 22 23  2  0  0  0  0
 20 24  2  0  0  0  0
 23 24  1  0  0  0  0
  8 25  1  0  0  0  0
  9 25  2  0  0  0  0
 22 25  1  0  0  0  0
  8 26  1  0  0  0  0
 26 27  1  0  0  0  0
  8 29  1  0  0  0  0
 28 29  1  0  0  0  0
 16 30  1  0  0  0  0
 11 31  2  0  0  0  0
 13 31  2  0  0  0  0
 27 31  1  0  0  0  0
 28 31  1  0  0  0  0
  2 32  1  0  0  0  0
  2 33  1  0  0  0  0
  2 34  1  0  0  0  0
 14 35  1  0  0  0  0
 15 36  1  0  0  0  0
 17 37  1  0  0  0  0
 18 38  1  0  0  0  0
 19 39  1  0  0  0  0
 19 40  1  0  0  0  0
 21 41  1  0  0  0  0
 23 42  1  0  0  0  0
 24 43  1  0  0  0  0
 26 44  1  0  0  0  0
 26 45  1  0  0  0  0
 27 46  1  0  0  0  0
 27 47  1  0  0  0  0
 28 48  1  0  0  0  0
 28 49  1  0  0  0  0
 29 50  1  0  0  0  0
 29 51  1  0  0  0  0
M  END
$$$$
