9EXW
  PyMOL3.1          3D                             0

 32 36  0  0  0  0  0  0  0  0999 V2000
 -136.5370  -17.0170  167.9570 N   0  0  0  0  0  0  0  0  0  0  0  0
 -133.7370  -18.6900  173.6360 C   0  0  0  0  0  0  0  0  0  0  0  0
 -132.4010  -10.7940  168.6250 O   0  0  0  0  0  0  0  0  0  0  0  0
 -134.5420  -18.5420  172.3720 C   0  0  0  0  0  0  0  0  0  0  0  0
 -134.0970  -16.4400  165.3080 N   0  0  0  0  0  0  0  0  0  0  0  0
 -132.2530  -13.4620  171.0200 O   0  0  0  0  0  0  0  0  0  0  0  0
 -135.9020  -18.2560  172.4560 C   0  0  0  0  0  0  0  0  0  0  0  0
 -131.9990  -20.1850  171.3540 N   0  0  0  0  0  0  0  0  0  0  0  0
 -136.6840  -18.1090  171.3270 C   0  0  0  0  0  0  0  0  0  0  0  0
 -130.3750  -18.9280  170.4780 N   0  0  0  0  0  0  0  0  0  0  0  0
 -136.1390  -18.2440  170.0630 C   0  0  0  0  0  0  0  0  0  0  0  0
 -132.0840  -12.9890  168.2860 N   0  0  0  0  0  0  0  0  0  0  0  0
 -136.9910  -18.0860  168.8280 C   0  0  0  0  0  0  0  0  0  0  0  0
 -135.7300  -17.2580  166.8710 C   0  0  0  0  0  0  0  0  0  0  0  0
 -135.7100  -18.4980  166.2480 C   0  0  0  0  0  0  0  0  0  0  0  0
 -134.8820  -18.6960  165.1610 C   0  0  0  0  0  0  0  0  0  0  0  0
 -134.0980  -17.6450  164.7280 C   0  0  0  0  0  0  0  0  0  0  0  0
 -134.9020  -16.2630  166.3600 C   0  0  0  0  0  0  0  0  0  0  0  0
 -134.7820  -18.5290  169.9600 C   0  0  0  0  0  0  0  0  0  0  0  0
 -133.9820  -18.6850  171.0910 C   0  0  0  0  0  0  0  0  0  0  0  0
 -132.5460  -18.9790  170.9330 C   0  0  0  0  0  0  0  0  0  0  0  0
 -130.7140  -20.1040  171.0630 C   0  0  0  0  0  0  0  0  0  0  0  0
 -129.0420  -18.5230  170.0370 C   0  0  0  0  0  0  0  0  0  0  0  0
 -131.5710  -18.1880  170.3880 C   0  0  0  0  0  0  0  0  0  0  0  0
 -131.6980  -16.8400  169.8240 C   0  0  0  0  0  0  0  0  0  0  0  0
 -131.6150  -16.6360  168.4530 C   0  0  0  0  0  0  0  0  0  0  0  0
 -131.7400  -15.3670  167.9180 C   0  0  0  0  0  0  0  0  0  0  0  0
 -131.9560  -14.2860  168.7690 C   0  0  0  0  0  0  0  0  0  0  0  0
 -132.2890  -11.9240  169.0840 C   0  0  0  0  0  0  0  0  0  0  0  0
 -131.9310  -12.1510  170.5290 C   0  0  0  0  0  0  0  0  0  0  0  0
 -132.0420  -14.4950  170.1420 C   0  0  0  0  0  0  0  0  0  0  0  0
 -131.9200  -15.7600  170.6710 C   0  0  0  0  0  0  0  0  0  0  0  0
  2  4  1  0  0  0  0
  4  7  2  0  0  0  0
  7  9  1  0  0  0  0
  9 11  2  0  0  0  0
  1 13  1  0  0  0  0
 11 13  1  0  0  0  0
  1 14  1  0  0  0  0
 14 15  2  0  0  0  0
 15 16  1  0  0  0  0
  5 17  1  0  0  0  0
 16 17  2  0  0  0  0
  5 18  2  0  0  0  0
 14 18  1  0  0  0  0
 11 19  1  0  0  0  0
  4 20  1  0  0  0  0
 19 20  2  0  0  0  0
  8 21  1  0  0  0  0
 20 21  1  0  0  0  0
  8 22  2  0  0  0  0
 10 22  1  0  0  0  0
 10 23  1  0  0  0  0
 10 24  1  0  0  0  0
 21 24  2  0  0  0  0
 24 25  1  0  0  0  0
 25 26  2  0  0  0  0
 26 27  1  0  0  0  0
 12 28  1  0  0  0  0
 27 28  2  0  0  0  0
  3 29  2  0  0  0  0
 12 29  1  0  0  0  0
  6 30  1  0  0  0  0
 29 30  1  0  0  0  0
  6 31  1  0  0  0  0
 28 31  1  0  0  0  0
 25 32  1  0  0  0  0
 31 32  2  0  0  0  0
M  END
$$$$
