9EXW
  PyMOL3.1          3D                             0

 32 36  0  0  0  0  0  0  0  0999 V2000
 -133.6200   -9.4450  156.4310 N   0  0  0  0  0  0  0  0  0  0  0  0
 -129.6650   -4.7050  158.4260 C   0  0  0  0  0  0  0  0  0  0  0  0
 -137.0360   -3.0300  152.9300 O   0  0  0  0  0  0  0  0  0  0  0  0
 -130.3240   -5.9900  158.0030 C   0  0  0  0  0  0  0  0  0  0  0  0
 -135.2640  -12.5710  155.4780 N   0  0  0  0  0  0  0  0  0  0  0  0
 -134.0270   -2.7840  154.9350 O   0  0  0  0  0  0  0  0  0  0  0  0
 -131.0880   -6.7120  158.9170 C   0  0  0  0  0  0  0  0  0  0  0  0
 -128.0320   -5.7590  155.7390 N   0  0  0  0  0  0  0  0  0  0  0  0
 -131.7090   -7.8970  158.5710 C   0  0  0  0  0  0  0  0  0  0  0  0
 -128.7000   -4.6590  153.9240 N   0  0  0  0  0  0  0  0  0  0  0  0
 -131.5940   -8.4140  157.2920 C   0  0  0  0  0  0  0  0  0  0  0  0
 -135.0930   -4.1400  152.7430 N   0  0  0  0  0  0  0  0  0  0  0  0
 -132.2700   -9.7010  156.8960 C   0  0  0  0  0  0  0  0  0  0  0  0
 -134.6010  -10.4080  156.2900 C   0  0  0  0  0  0  0  0  0  0  0  0
 -135.8820  -10.2020  156.7890 C   0  0  0  0  0  0  0  0  0  0  0  0
 -136.8410  -11.1850  156.6270 C   0  0  0  0  0  0  0  0  0  0  0  0
 -136.4880  -12.3440  155.9700 C   0  0  0  0  0  0  0  0  0  0  0  0
 -134.3450  -11.6130  155.6420 C   0  0  0  0  0  0  0  0  0  0  0  0
 -130.8390   -7.7070  156.3670 C   0  0  0  0  0  0  0  0  0  0  0  0
 -130.2030   -6.5100  156.7050 C   0  0  0  0  0  0  0  0  0  0  0  0
 -129.4180   -5.8040  155.6780 C   0  0  0  0  0  0  0  0  0  0  0  0
 -127.6620   -5.0690  154.6820 C   0  0  0  0  0  0  0  0  0  0  0  0
 -128.6210   -3.8790  152.6920 C   0  0  0  0  0  0  0  0  0  0  0  0
 -129.8510   -5.1380  154.5600 C   0  0  0  0  0  0  0  0  0  0  0  0
 -131.2140   -4.9000  154.0650 C   0  0  0  0  0  0  0  0  0  0  0  0
 -131.7150   -5.5980  152.9710 C   0  0  0  0  0  0  0  0  0  0  0  0
 -132.9990   -5.3640  152.5120 C   0  0  0  0  0  0  0  0  0  0  0  0
 -133.7960   -4.4180  153.1610 C   0  0  0  0  0  0  0  0  0  0  0  0
 -135.8970   -3.2350  153.3370 C   0  0  0  0  0  0  0  0  0  0  0  0
 -135.2360   -2.3020  154.3240 C   0  0  0  0  0  0  0  0  0  0  0  0
 -133.2900   -3.7240  154.2590 C   0  0  0  0  0  0  0  0  0  0  0  0
 -132.0130   -3.9610  154.7100 C   0  0  0  0  0  0  0  0  0  0  0  0
  2  4  1  0  0  0  0
  4  7  2  0  0  0  0
  7  9  1  0  0  0  0
  9 11  2  0  0  0  0
  1 13  1  0  0  0  0
 11 13  1  0  0  0  0
  1 14  1  0  0  0  0
 14 15  2  0  0  0  0
 15 16  1  0  0  0  0
  5 17  1  0  0  0  0
 16 17  2  0  0  0  0
  5 18  2  0  0  0  0
 14 18  1  0  0  0  0
 11 19  1  0  0  0  0
  4 20  1  0  0  0  0
 19 20  2  0  0  0  0
  8 21  1  0  0  0  0
 20 21  1  0  0  0  0
  8 22  2  0  0  0  0
 10 22  1  0  0  0  0
 10 23  1  0  0  0  0
 10 24  1  0  0  0  0
 21 24  2  0  0  0  0
 24 25  1  0  0  0  0
 25 26  2  0  0  0  0
 26 27  1  0  0  0  0
 12 28  1  0  0  0  0
 27 28  2  0  0  0  0
  3 29  2  0  0  0  0
 12 29  1  0  0  0  0
  6 30  1  0  0  0  0
 29 30  1  0  0  0  0
  6 31  1  0  0  0  0
 28 31  1  0  0  0  0
 25 32  1  0  0  0  0
 31 32  2  0  0  0  0
M  END
$$$$
