6M22
  PyMOL3.1          3D                             0

 52 56  0  0  0  0  0  0  0  0999 V2000
  166.5320  172.6870  201.2740 Cl  0  0  0  0  0  0  0  0  0  0  0  0
  165.5500  174.0470  204.1200 Cl  0  0  0  0  0  0  0  0  0  0  0  0
  165.1370  172.5910  198.3300 O   0  0  0  0  0  0  0  0  0  0  0  0
  162.6380  175.2440  204.0050 O   0  0  0  0  0  0  0  0  0  0  0  0
  160.1220  177.2430  205.3550 O   0  0  0  0  0  0  0  0  0  0  0  0
  162.1580  177.0250  206.0750 O   0  0  0  0  0  0  0  0  0  0  0  0
  162.6240  172.7910  198.2120 C   0  0  0  0  0  0  0  0  0  0  0  0
  161.9670  171.4170  198.6280 C   0  0  0  0  0  0  0  0  0  0  0  0
  160.7020  171.0730  197.6960 C   0  0  0  0  0  0  0  0  0  0  0  0
  162.8120  170.3940  198.4060 C   0  0  0  0  0  0  0  0  0  0  0  0
  161.9500  173.7870  198.7800 C   0  0  0  0  0  0  0  0  0  0  0  0
  162.6880  172.9440  196.6780 C   0  0  0  0  0  0  0  0  0  0  0  0
  160.6640  169.4850  197.6670 C   0  0  0  0  0  0  0  0  0  0  0  0
  161.8160  169.0590  198.2740 C   0  0  0  0  0  0  0  0  0  0  0  0
  164.1270  172.8890  198.8520 C   0  0  0  0  0  0  0  0  0  0  0  0
  162.6550  173.9780  200.2390 C   0  0  0  0  0  0  0  0  0  0  0  0
  163.9690  173.3970  200.1620 C   0  0  0  0  0  0  0  0  0  0  0  0
  163.0900  174.4170  196.2440 C   0  0  0  0  0  0  0  0  0  0  0  0
  162.1610  174.6270  201.5580 C   0  0  0  0  0  0  0  0  0  0  0  0
  164.5800  174.7760  196.7600 C   0  0  0  0  0  0  0  0  0  0  0  0
  164.9180  173.4070  201.3950 C   0  0  0  0  0  0  0  0  0  0  0  0
  163.0830  174.6460  202.7830 C   0  0  0  0  0  0  0  0  0  0  0  0
  164.4550  174.0360  202.6950 C   0  0  0  0  0  0  0  0  0  0  0  0
  164.9890  176.1580  196.2160 C   0  0  0  0  0  0  0  0  0  0  0  0
  161.7410  176.3380  203.8050 C   0  0  0  0  0  0  0  0  0  0  0  0
  161.3180  176.9030  205.1610 C   0  0  0  0  0  0  0  0  0  0  0  0
  181.0180  175.2830  201.5310 Cl  0  0  0  0  0  0  0  0  0  0  0  0
  181.9520  173.8490  204.3640 Cl  0  0  0  0  0  0  0  0  0  0  0  0
  182.4310  175.4860  198.6590 O   0  0  0  0  0  0  0  0  0  0  0  0
  184.8490  172.5870  204.2350 O   0  0  0  0  0  0  0  0  0  0  0  0
  187.5660  170.6590  205.4060 O   0  0  0  0  0  0  0  0  0  0  0  0
  185.6930  171.1720  206.3820 O   0  0  0  0  0  0  0  0  0  0  0  0
  184.9000  175.0080  198.3940 C   0  0  0  0  0  0  0  0  0  0  0  0
  185.6200  176.4110  198.5380 C   0  0  0  0  0  0  0  0  0  0  0  0
  187.1040  176.3900  197.9200 C   0  0  0  0  0  0  0  0  0  0  0  0
  184.9980  177.3840  197.8410 C   0  0  0  0  0  0  0  0  0  0  0  0
  185.6110  174.1030  199.0610 C   0  0  0  0  0  0  0  0  0  0  0  0
  184.7280  174.5540  196.9300 C   0  0  0  0  0  0  0  0  0  0  0  0
  187.3990  177.9370  197.7420 C   0  0  0  0  0  0  0  0  0  0  0  0
  186.1850  178.4990  197.4520 C   0  0  0  0  0  0  0  0  0  0  0  0
  183.4300  175.0660  199.1200 C   0  0  0  0  0  0  0  0  0  0  0  0
  184.8720  173.9200  200.4990 C   0  0  0  0  0  0  0  0  0  0  0  0
  183.5740  174.5310  200.4220 C   0  0  0  0  0  0  0  0  0  0  0  0
  183.9530  173.1680  196.9030 C   0  0  0  0  0  0  0  0  0  0  0  0
  185.3400  173.2410  201.8060 C   0  0  0  0  0  0  0  0  0  0  0  0
  183.5310  172.7640  195.3980 C   0  0  0  0  0  0  0  0  0  0  0  0
  182.6160  174.5220  201.6490 C   0  0  0  0  0  0  0  0  0  0  0  0
  184.4140  173.2200  203.0260 C   0  0  0  0  0  0  0  0  0  0  0  0
  183.0560  173.8620  202.9440 C   0  0  0  0  0  0  0  0  0  0  0  0
  182.6610  171.4940  195.4660 C   0  0  0  0  0  0  0  0  0  0  0  0
  185.8190  171.5610  204.0130 C   0  0  0  0  0  0  0  0  0  0  0  0
  186.3900  171.1040  205.3500 C   0  0  0  0  0  0  0  0  0  0  0  0
  7  8  1  0  0  0  0
  7 11  1  0  0  0  0
  7 12  1  0  0  0  0
  8  9  1  0  0  0  0
  8 10  1  0  0  0  0
 10 14  1  0  0  0  0
 11 16  1  0  0  0  0
 12 18  1  0  0  0  0
  9 13  1  0  0  0  0
 13 14  1  0  0  0  0
  3 15  2  0  0  0  0
  7 15  1  0  0  0  0
 15 17  1  0  0  0  0
 16 19  4  0  0  0  0
 16 17  4  0  0  0  0
 17 21  4  0  0  0  0
 18 20  1  0  0  0  0
 20 24  1  0  0  0  0
  1 21  1  0  0  0  0
 21 23  4  0  0  0  0
  4 22  1  0  0  0  0
 19 22  4  0  0  0  0
 22 23  4  0  0  0  0
  2 23  1  0  0  0  0
  4 25  1  0  0  0  0
  5 26  4  0  0  0  0
  6 26  4  0  0  0  0
 25 26  1  0  0  0  0
 33 34  1  0  0  0  0
 33 37  1  0  0  0  0
 33 38  1  0  0  0  0
 34 35  1  0  0  0  0
 34 36  1  0  0  0  0
 36 40  1  0  0  0  0
 37 42  1  0  0  0  0
 38 44  1  0  0  0  0
 35 39  1  0  0  0  0
 39 40  1  0  0  0  0
 29 41  2  0  0  0  0
 33 41  1  0  0  0  0
 41 43  1  0  0  0  0
 42 45  4  0  0  0  0
 42 43  4  0  0  0  0
 43 47  4  0  0  0  0
 44 46  1  0  0  0  0
 46 50  1  0  0  0  0
 27 47  1  0  0  0  0
 47 49  4  0  0  0  0
 30 48  1  0  0  0  0
 45 48  4  0  0  0  0
 48 49  4  0  0  0  0
 28 49  1  0  0  0  0
 30 51  1  0  0  0  0
 31 52  4  0  0  0  0
 32 52  4  0  0  0  0
 51 52  1  0  0  0  0
M  END
$$$$
