8V4X
  PyMOL3.1          3D                             0

132144  0  0  0  0  0  0  0  0999 V2000
  -21.0100  -12.2080  -42.0680 N   0  0  0  0  0  0  0  0  0  0  0  0
  -22.0500  -11.5090  -41.5170 C   0  0  0  0  0  0  0  0  0  0  0  0
  -23.2030  -11.9200  -41.4790 O   0  0  0  0  0  0  0  0  0  0  0  0
  -22.4420   -9.4060  -40.2520 C   0  0  0  0  0  0  0  0  0  0  0  0
  -21.6530  -10.3010  -41.0080 N   0  0  0  0  0  0  0  0  0  0  0  0
  -20.3960   -7.9350  -41.8060 O   0  0  0  0  0  0  0  0  0  0  0  0
  -22.4800   -8.0430  -40.5440 C   0  0  0  0  0  0  0  0  0  0  0  0
  -23.4410   -5.8290  -39.8420 N   0  0  0  0  0  0  0  0  0  0  0  0
  -23.2500   -7.1990  -39.7320 C   0  0  0  0  0  0  0  0  0  0  0  0
  -23.8760   -9.0960  -38.3810 N   0  0  0  0  0  0  0  0  0  0  0  0
  -23.8900   -7.7980  -38.6840 C   0  0  0  0  0  0  0  0  0  0  0  0
  -19.8850  -15.1570  -43.9700 N   0  0  0  0  0  0  0  0  0  0  0  0
  -24.1990   -5.4000  -38.8850 C   0  0  0  0  0  0  0  0  0  0  0  0
  -20.9870  -17.0940  -44.7390 N   0  0  0  0  0  0  0  0  0  0  0  0
  -24.6020   -3.9750  -38.7110 C   0  0  0  0  0  0  0  0  0  0  0  0
  -21.6060  -17.2790  -45.9100 N   0  0  0  0  0  0  0  0  0  0  0  0
  -23.1550   -9.9020  -39.1670 C   0  0  0  0  0  0  0  0  0  0  0  0
  -20.3940  -18.1790  -44.2290 N   0  0  0  0  0  0  0  0  0  0  0  0
  -21.6930   -7.3710  -41.6730 C   0  0  0  0  0  0  0  0  0  0  0  0
  -19.3840   -7.1160  -41.2370 C   0  0  0  0  0  0  0  0  0  0  0  0
  -22.3510   -7.5010  -43.0280 C   0  0  0  0  0  0  0  0  0  0  0  0
  -21.0520  -13.4880  -42.6670 C   0  0  0  0  0  0  0  0  0  0  0  0
  -19.9300  -13.9870  -43.3210 C   0  0  0  0  0  0  0  0  0  0  0  0
  -21.0230  -15.8670  -43.9920 C   0  0  0  0  0  0  0  0  0  0  0  0
  -21.4110  -18.5680  -46.1590 C   0  0  0  0  0  0  0  0  0  0  0  0
  -20.6610  -19.1230  -45.1240 C   0  0  0  0  0  0  0  0  0  0  0  0
  -22.2410  -15.4690  -43.3660 C   0  0  0  0  0  0  0  0  0  0  0  0
  -22.2060  -14.2630  -42.6790 C   0  0  0  0  0  0  0  0  0  0  0  0
  -23.6010  -16.1030  -43.4430 C   0  0  0  0  0  0  0  0  0  0  0  0
  -23.5780  -17.3590  -43.8860 F   0  0  0  0  0  0  0  0  0  0  0  0
  -24.2060  -16.1310  -42.2540 F   0  0  0  0  0  0  0  0  0  0  0  0
  -24.4000  -15.4710  -44.2950 F   0  0  0  0  0  0  0  0  0  0  0  0
  -24.7590   -6.6080  -37.7560 S   0  0  0  0  0  0  0  0  0  0  0  0
  -88.3560  -14.0630  -16.7950 N   0  0  0  0  0  0  0  0  0  0  0  0
  -87.3860  -13.3140  -17.4060 C   0  0  0  0  0  0  0  0  0  0  0  0
  -86.1950  -13.5900  -17.3880 O   0  0  0  0  0  0  0  0  0  0  0  0
  -87.2200  -11.2300  -18.7840 C   0  0  0  0  0  0  0  0  0  0  0  0
  -87.9040  -12.2210  -18.0420 N   0  0  0  0  0  0  0  0  0  0  0  0
  -89.3060  -10.1220  -17.0460 O   0  0  0  0  0  0  0  0  0  0  0  0
  -87.3050   -9.8910  -18.4010 C   0  0  0  0  0  0  0  0  0  0  0  0
  -86.4870   -7.5540  -18.9010 N   0  0  0  0  0  0  0  0  0  0  0  0
  -86.6300   -8.9160  -19.1490 C   0  0  0  0  0  0  0  0  0  0  0  0
  -85.8590  -10.6640  -20.6600 N   0  0  0  0  0  0  0  0  0  0  0  0
  -85.9280   -9.3980  -20.2410 C   0  0  0  0  0  0  0  0  0  0  0  0
  -89.3760  -17.0780  -14.9640 N   0  0  0  0  0  0  0  0  0  0  0  0
  -85.6800   -7.0200  -19.7600 C   0  0  0  0  0  0  0  0  0  0  0  0
  -88.2170  -19.0010  -14.1090 N   0  0  0  0  0  0  0  0  0  0  0  0
  -85.2980   -5.5780  -19.7630 C   0  0  0  0  0  0  0  0  0  0  0  0
  -87.7350  -19.1420  -12.8690 N   0  0  0  0  0  0  0  0  0  0  0  0
  -86.4960  -11.5830  -19.9220 C   0  0  0  0  0  0  0  0  0  0  0  0
  -88.6960  -20.1210  -14.6690 N   0  0  0  0  0  0  0  0  0  0  0  0
  -88.0760   -9.4200  -17.1740 C   0  0  0  0  0  0  0  0  0  0  0  0
  -90.3300   -9.5820  -17.8700 C   0  0  0  0  0  0  0  0  0  0  0  0
  -87.3160   -9.6170  -15.8810 C   0  0  0  0  0  0  0  0  0  0  0  0
  -88.2170  -15.3130  -16.1400 C   0  0  0  0  0  0  0  0  0  0  0  0
  -89.3580  -15.9040  -15.6060 C   0  0  0  0  0  0  0  0  0  0  0  0
  -88.2000  -17.7210  -14.8570 C   0  0  0  0  0  0  0  0  0  0  0  0
  -87.9160  -20.4330  -12.6140 C   0  0  0  0  0  0  0  0  0  0  0  0
  -88.5090  -21.0380  -13.7280 C   0  0  0  0  0  0  0  0  0  0  0  0
  -86.9640  -17.2460  -15.4040 C   0  0  0  0  0  0  0  0  0  0  0  0
  -87.0100  -16.0000  -16.0210 C   0  0  0  0  0  0  0  0  0  0  0  0
  -85.6810  -18.0170  -15.5430 C   0  0  0  0  0  0  0  0  0  0  0  0
  -85.6950  -19.1810  -14.8940 F   0  0  0  0  0  0  0  0  0  0  0  0
  -85.4140  -18.3240  -16.8010 F   0  0  0  0  0  0  0  0  0  0  0  0
  -84.6290  -17.3480  -15.0850 F   0  0  0  0  0  0  0  0  0  0  0  0
  -85.0300   -8.0980  -20.9700 S   0  0  0  0  0  0  0  0  0  0  0  0
  -36.7280  -23.2240   12.5030 N   0  0  0  0  0  0  0  0  0  0  0  0
  -36.8820  -22.0830   11.7530 C   0  0  0  0  0  0  0  0  0  0  0  0
  -35.9930  -21.2620   11.5450 O   0  0  0  0  0  0  0  0  0  0  0  0
  -38.6900  -20.9360   10.4500 C   0  0  0  0  0  0  0  0  0  0  0  0
  -38.1550  -21.9660   11.2600 N   0  0  0  0  0  0  0  0  0  0  0  0
  -40.7180  -22.0280   12.3500 O   0  0  0  0  0  0  0  0  0  0  0  0
  -39.8830  -20.3040   10.8090 C   0  0  0  0  0  0  0  0  0  0  0  0
  -41.4410  -18.4120   10.2270 N   0  0  0  0  0  0  0  0  0  0  0  0
  -40.3640  -19.2630   10.0010 C   0  0  0  0  0  0  0  0  0  0  0  0
  -38.4710  -19.5740    8.5090 N   0  0  0  0  0  0  0  0  0  0  0  0
  -39.5950  -18.9660    8.8910 C   0  0  0  0  0  0  0  0  0  0  0  0
  -34.6260  -25.6490   14.2850 N   0  0  0  0  0  0  0  0  0  0  0  0
  -41.4780  -17.4800    9.3300 C   0  0  0  0  0  0  0  0  0  0  0  0
  -32.4060  -25.8220   14.9040 N   0  0  0  0  0  0  0  0  0  0  0  0
  -42.5030  -16.4000    9.2910 C   0  0  0  0  0  0  0  0  0  0  0  0
  -31.6700  -25.3860   15.9330 N   0  0  0  0  0  0  0  0  0  0  0  0
  -38.0130  -20.5560    9.2950 C   0  0  0  0  0  0  0  0  0  0  0  0
  -32.1500  -27.0750   14.5090 N   0  0  0  0  0  0  0  0  0  0  0  0
  -40.6630  -20.6290   12.0910 C   0  0  0  0  0  0  0  0  0  0  0  0
  -41.7000  -22.6890   11.5700 C   0  0  0  0  0  0  0  0  0  0  0  0
  -40.0480  -20.0140   13.3310 C   0  0  0  0  0  0  0  0  0  0  0  0
  -35.5480  -23.7730   13.0680 C   0  0  0  0  0  0  0  0  0  0  0  0
  -35.6480  -25.0060   13.7070 C   0  0  0  0  0  0  0  0  0  0  0  0
  -33.4300  -25.0450   14.2310 C   0  0  0  0  0  0  0  0  0  0  0  0
  -30.8840  -26.4200   16.2090 C   0  0  0  0  0  0  0  0  0  0  0  0
  -31.1820  -27.4640   15.3310 C   0  0  0  0  0  0  0  0  0  0  0  0
  -33.1840  -23.7790   13.5930 C   0  0  0  0  0  0  0  0  0  0  0  0
  -34.2950  -23.1670   13.0230 C   0  0  0  0  0  0  0  0  0  0  0  0
  -31.9000  -23.0080   13.4250 C   0  0  0  0  0  0  0  0  0  0  0  0
  -31.9010  -21.8600   14.0980 F   0  0  0  0  0  0  0  0  0  0  0  0
  -31.6600  -22.6780   12.1610 F   0  0  0  0  0  0  0  0  0  0  0  0
  -30.8240  -23.6870   13.8050 F   0  0  0  0  0  0  0  0  0  0  0  0
  -40.2240  -17.5400    8.1140 S   0  0  0  0  0  0  0  0  0  0  0  0
  -72.3420  -23.8730  -71.3680 N   0  0  0  0  0  0  0  0  0  0  0  0
  -72.1530  -22.5910  -70.9140 C   0  0  0  0  0  0  0  0  0  0  0  0
  -72.9540  -21.6740  -71.0800 O   0  0  0  0  0  0  0  0  0  0  0  0
  -70.5180  -21.2870  -69.5760 C   0  0  0  0  0  0  0  0  0  0  0  0
  -70.9670  -22.4470  -70.2460 N   0  0  0  0  0  0  0  0  0  0  0  0
  -68.4440  -22.4540  -71.4110 O   0  0  0  0  0  0  0  0  0  0  0  0
  -69.3260  -20.6670  -69.9530 C   0  0  0  0  0  0  0  0  0  0  0  0
  -67.7630  -18.7840  -69.4200 N   0  0  0  0  0  0  0  0  0  0  0  0
  -68.9020  -19.5490  -69.2230 C   0  0  0  0  0  0  0  0  0  0  0  0
  -70.8660  -19.7160  -67.8180 N   0  0  0  0  0  0  0  0  0  0  0  0
  -69.7190  -19.1490  -68.1940 C   0  0  0  0  0  0  0  0  0  0  0  0
  -74.3630  -26.2590  -73.3160 N   0  0  0  0  0  0  0  0  0  0  0  0
  -67.7170  -17.8180  -68.5610 C   0  0  0  0  0  0  0  0  0  0  0  0
  -76.5560  -26.2970  -74.0760 N   0  0  0  0  0  0  0  0  0  0  0  0
  -66.6210  -16.8100  -68.4970 C   0  0  0  0  0  0  0  0  0  0  0  0
  -77.1800  -25.8400  -75.1660 N   0  0  0  0  0  0  0  0  0  0  0  0
  -71.2650  -20.7900  -68.5090 C   0  0  0  0  0  0  0  0  0  0  0  0
  -77.0000  -27.4710  -73.6140 N   0  0  0  0  0  0  0  0  0  0  0  0
  -68.4550  -21.0580  -71.1510 C   0  0  0  0  0  0  0  0  0  0  0  0
  -67.3440  -23.1120  -70.8090 C   0  0  0  0  0  0  0  0  0  0  0  0
  -68.8620  -20.3640  -72.4310 C   0  0  0  0  0  0  0  0  0  0  0  0
  -73.4520  -24.3910  -72.0790 C   0  0  0  0  0  0  0  0  0  0  0  0
  -73.3620  -25.6500  -72.6680 C   0  0  0  0  0  0  0  0  0  0  0  0
  -75.5210  -25.5860  -73.3870 C   0  0  0  0  0  0  0  0  0  0  0  0
  -78.0930  -26.7740  -75.4110 C   0  0  0  0  0  0  0  0  0  0  0  0
  -77.9810  -27.7810  -74.4530 C   0  0  0  0  0  0  0  0  0  0  0  0
  -75.7470  -24.2870  -72.8310 C   0  0  0  0  0  0  0  0  0  0  0  0
  -74.6630  -23.7120  -72.1810 C   0  0  0  0  0  0  0  0  0  0  0  0
  -77.0030  -23.4580  -72.8510 C   0  0  0  0  0  0  0  0  0  0  0  0
  -78.1040  -24.1830  -73.0200 F   0  0  0  0  0  0  0  0  0  0  0  0
  -77.1950  -22.7890  -71.7210 F   0  0  0  0  0  0  0  0  0  0  0  0
  -76.9940  -22.5460  -73.8120 F   0  0  0  0  0  0  0  0  0  0  0  0
  -69.0430  -17.7410  -67.4270 S   0  0  0  0  0  0  0  0  0  0  0  0
  1  2  1  0  0  0  0
  2  3  2  0  0  0  0
  2  5  1  0  0  0  0
  4  5  1  0  0  0  0
  4  7  2  0  0  0  0
  7  9  1  0  0  0  0
  8  9  1  0  0  0  0
  9 11  2  0  0  0  0
 10 11  1  0  0  0  0
  8 13  2  0  0  0  0
 13 15  1  0  0  0  0
 14 16  1  0  0  0  0
  4 17  1  0  0  0  0
 10 17  2  0  0  0  0
 14 18  1  0  0  0  0
  6 19  1  0  0  0  0
  7 19  1  0  0  0  0
  6 20  1  0  0  0  0
 19 21  1  0  0  0  0
  1 22  1  0  0  0  0
 12 23  1  0  0  0  0
 22 23  2  0  0  0  0
 12 24  2  0  0  0  0
 14 24  1  0  0  0  0
 16 25  2  0  0  0  0
 18 26  2  0  0  0  0
 25 26  1  0  0  0  0
 24 27  1  0  0  0  0
 22 28  1  0  0  0  0
 27 28  2  0  0  0  0
 27 29  1  0  0  0  0
 29 30  1  0  0  0  0
 29 31  1  0  0  0  0
 29 32  1  0  0  0  0
 11 33  1  0  0  0  0
 13 33  1  0  0  0  0
 34 35  1  0  0  0  0
 35 36  2  0  0  0  0
 35 38  1  0  0  0  0
 37 38  1  0  0  0  0
 37 40  2  0  0  0  0
 40 42  1  0  0  0  0
 41 42  1  0  0  0  0
 42 44  2  0  0  0  0
 43 44  1  0  0  0  0
 41 46  2  0  0  0  0
 46 48  1  0  0  0  0
 47 49  1  0  0  0  0
 37 50  1  0  0  0  0
 43 50  2  0  0  0  0
 47 51  1  0  0  0  0
 39 52  1  0  0  0  0
 40 52  1  0  0  0  0
 39 53  1  0  0  0  0
 52 54  1  0  0  0  0
 34 55  1  0  0  0  0
 45 56  1  0  0  0  0
 55 56  2  0  0  0  0
 45 57  2  0  0  0  0
 47 57  1  0  0  0  0
 49 58  2  0  0  0  0
 51 59  2  0  0  0  0
 58 59  1  0  0  0  0
 57 60  1  0  0  0  0
 55 61  1  0  0  0  0
 60 61  2  0  0  0  0
 60 62  1  0  0  0  0
 62 63  1  0  0  0  0
 62 64  1  0  0  0  0
 62 65  1  0  0  0  0
 44 66  1  0  0  0  0
 46 66  1  0  0  0  0
 67 68  1  0  0  0  0
 68 69  2  0  0  0  0
 68 71  1  0  0  0  0
 70 71  1  0  0  0  0
 70 73  2  0  0  0  0
 73 75  1  0  0  0  0
 74 75  1  0  0  0  0
 75 77  2  0  0  0  0
 76 77  1  0  0  0  0
 74 79  2  0  0  0  0
 79 81  1  0  0  0  0
 80 82  1  0  0  0  0
 70 83  1  0  0  0  0
 76 83  2  0  0  0  0
 80 84  1  0  0  0  0
 72 85  1  0  0  0  0
 73 85  1  0  0  0  0
 72 86  1  0  0  0  0
 85 87  1  0  0  0  0
 67 88  1  0  0  0  0
 78 89  1  0  0  0  0
 88 89  2  0  0  0  0
 78 90  2  0  0  0  0
 80 90  1  0  0  0  0
 82 91  2  0  0  0  0
 84 92  2  0  0  0  0
 91 92  1  0  0  0  0
 90 93  1  0  0  0  0
 88 94  1  0  0  0  0
 93 94  2  0  0  0  0
 93 95  1  0  0  0  0
 95 96  1  0  0  0  0
 95 97  1  0  0  0  0
 95 98  1  0  0  0  0
 77 99  1  0  0  0  0
 79 99  1  0  0  0  0
100101  1  0  0  0  0
101102  2  0  0  0  0
101104  1  0  0  0  0
103104  1  0  0  0  0
103106  2  0  0  0  0
106108  1  0  0  0  0
107108  1  0  0  0  0
108110  2  0  0  0  0
109110  1  0  0  0  0
107112  2  0  0  0  0
112114  1  0  0  0  0
113115  1  0  0  0  0
103116  1  0  0  0  0
109116  2  0  0  0  0
113117  1  0  0  0  0
105118  1  0  0  0  0
106118  1  0  0  0  0
105119  1  0  0  0  0
118120  1  0  0  0  0
100121  1  0  0  0  0
111122  1  0  0  0  0
121122  2  0  0  0  0
111123  2  0  0  0  0
113123  1  0  0  0  0
115124  2  0  0  0  0
117125  2  0  0  0  0
124125  1  0  0  0  0
123126  1  0  0  0  0
121127  1  0  0  0  0
126127  2  0  0  0  0
126128  1  0  0  0  0
128129  1  0  0  0  0
128130  1  0  0  0  0
128131  1  0  0  0  0
110132  1  0  0  0  0
112132  1  0  0  0  0
M  END
$$$$
