8QUD
  PyMOL3.1          3D                             0

 27 31  0  0  0  0  0  0  0  0999 V2000
  153.1290  117.7980  151.9240 C   0  0  0  0  0  0  0  0  0  0  0  0
  153.4720  115.5710  154.3560 N   0  0  0  0  0  0  0  0  0  0  0  0
  150.9350  115.1040  149.7310 O   0  0  0  0  0  0  0  0  0  0  0  0
  153.5140  116.4690  151.8080 C   0  0  0  0  0  0  0  0  0  0  0  0
  154.6350  114.8080  157.7850 N   0  0  0  0  0  0  0  0  0  0  0  0
  154.6570  115.9570  152.4160 O   0  0  0  0  0  0  0  0  0  0  0  0
  152.7220  115.6130  151.0560 C   0  0  0  0  0  0  0  0  0  0  0  0
  155.3250  114.6710  159.9010 N   0  0  0  0  0  0  0  0  0  0  0  0
  152.6310  113.6770  157.9230 O   0  0  0  0  0  0  0  0  0  0  0  0
  151.5860  116.0820  150.4310 C   0  0  0  0  0  0  0  0  0  0  0  0
  156.5770  115.9320  158.4490 O   0  0  0  0  0  0  0  0  0  0  0  0
  151.1850  117.4010  150.5330 C   0  0  0  0  0  0  0  0  0  0  0  0
  151.9760  118.2590  151.2910 C   0  0  0  0  0  0  0  0  0  0  0  0
  151.8180  113.9510  149.6340 C   0  0  0  0  0  0  0  0  0  0  0  0
  152.8390  114.1730  150.7260 C   0  0  0  0  0  0  0  0  0  0  0  0
  154.1460  113.4350  150.7330 C   0  0  0  0  0  0  0  0  0  0  0  0
  153.0970  113.1050  151.7480 C   0  0  0  0  0  0  0  0  0  0  0  0
  154.6350  115.6760  153.7490 C   0  0  0  0  0  0  0  0  0  0  0  0
  155.8610  115.5130  154.3630 C   0  0  0  0  0  0  0  0  0  0  0  0
  155.8660  115.2250  155.7130 C   0  0  0  0  0  0  0  0  0  0  0  0
  154.6640  115.1090  156.3790 C   0  0  0  0  0  0  0  0  0  0  0  0
  153.4900  115.2870  155.6690 C   0  0  0  0  0  0  0  0  0  0  0  0
  155.6310  115.2150  158.7140 C   0  0  0  0  0  0  0  0  0  0  0  0
  154.1070  113.8780  159.8690 C   0  0  0  0  0  0  0  0  0  0  0  0
  153.6520  114.0770  158.4280 C   0  0  0  0  0  0  0  0  0  0  0  0
  154.3270  112.4060  160.2030 C   0  0  0  0  0  0  0  0  0  0  0  0
  153.0960  111.7330  160.7850 C   0  0  0  0  0  0  0  0  0  0  0  0
  1  4  2  0  0  0  0
  4  6  1  0  0  0  0
  4  7  1  0  0  0  0
  3 10  1  0  0  0  0
  7 10  2  0  0  0  0
 10 12  1  0  0  0  0
  1 13  1  0  0  0  0
 12 13  2  0  0  0  0
  3 14  1  0  0  0  0
  7 15  1  0  0  0  0
 14 15  1  0  0  0  0
 15 16  1  0  0  0  0
 15 17  1  0  0  0  0
 16 17  1  0  0  0  0
  2 18  2  0  0  0  0
  6 18  1  0  0  0  0
 18 19  1  0  0  0  0
 19 20  2  0  0  0  0
  5 21  1  0  0  0  0
 20 21  1  0  0  0  0
  2 22  1  0  0  0  0
 21 22  2  0  0  0  0
  5 23  1  0  0  0  0
  8 23  1  0  0  0  0
 11 23  2  0  0  0  0
  8 24  1  0  0  0  0
  5 25  1  0  0  0  0
  9 25  2  0  0  0  0
 24 25  1  0  0  0  0
 24 26  1  0  0  0  0
 26 27  1  0  0  0  0
M  END
$$$$
