8QUD
  PyMOL3.1          3D                             0

 27 31  0  0  0  0  0  0  0  0999 V2000
  146.2120  153.1240  151.9210 C   0  0  0  0  0  0  0  0  0  0  0  0
  148.4410  153.4710  154.3510 N   0  0  0  0  0  0  0  0  0  0  0  0
  148.9060  150.9290  149.7290 O   0  0  0  0  0  0  0  0  0  0  0  0
  147.5410  153.5100  151.8040 C   0  0  0  0  0  0  0  0  0  0  0  0
  149.2050  154.6390  157.7790 N   0  0  0  0  0  0  0  0  0  0  0  0
  148.0520  154.6540  152.4100 O   0  0  0  0  0  0  0  0  0  0  0  0
  148.3970  152.7170  151.0520 C   0  0  0  0  0  0  0  0  0  0  0  0
  149.3430  155.3310  159.8940 N   0  0  0  0  0  0  0  0  0  0  0  0
  150.3380  152.6360  157.9180 O   0  0  0  0  0  0  0  0  0  0  0  0
  147.9280  151.5800  150.4290 C   0  0  0  0  0  0  0  0  0  0  0  0
  148.0800  156.5810  158.4410 O   0  0  0  0  0  0  0  0  0  0  0  0
  146.6100  151.1780  150.5320 C   0  0  0  0  0  0  0  0  0  0  0  0
  145.7520  151.9700  151.2900 C   0  0  0  0  0  0  0  0  0  0  0  0
  150.0590  151.8130  149.6300 C   0  0  0  0  0  0  0  0  0  0  0  0
  149.8370  152.8350  150.7210 C   0  0  0  0  0  0  0  0  0  0  0  0
  150.5740  154.1430  150.7260 C   0  0  0  0  0  0  0  0  0  0  0  0
  150.9050  153.0950  151.7420 C   0  0  0  0  0  0  0  0  0  0  0  0
  148.3340  154.6330  153.7430 C   0  0  0  0  0  0  0  0  0  0  0  0
  148.4970  155.8600  154.3560 C   0  0  0  0  0  0  0  0  0  0  0  0
  148.7860  155.8670  155.7050 C   0  0  0  0  0  0  0  0  0  0  0  0
  148.9030  154.6660  156.3730 C   0  0  0  0  0  0  0  0  0  0  0  0
  148.7260  153.4910  155.6640 C   0  0  0  0  0  0  0  0  0  0  0  0
  148.7980  155.6360  158.7070 C   0  0  0  0  0  0  0  0  0  0  0  0
  150.1370  154.1140  159.8630 C   0  0  0  0  0  0  0  0  0  0  0  0
  149.9370  153.6570  158.4220 C   0  0  0  0  0  0  0  0  0  0  0  0
  151.6090  154.3350  160.1950 C   0  0  0  0  0  0  0  0  0  0  0  0
  152.2830  153.1060  160.7780 C   0  0  0  0  0  0  0  0  0  0  0  0
  1  4  2  0  0  0  0
  4  6  1  0  0  0  0
  4  7  1  0  0  0  0
  3 10  1  0  0  0  0
  7 10  2  0  0  0  0
 10 12  1  0  0  0  0
  1 13  1  0  0  0  0
 12 13  2  0  0  0  0
  3 14  1  0  0  0  0
  7 15  1  0  0  0  0
 14 15  1  0  0  0  0
 15 16  1  0  0  0  0
 15 17  1  0  0  0  0
 16 17  1  0  0  0  0
  2 18  2  0  0  0  0
  6 18  1  0  0  0  0
 18 19  1  0  0  0  0
 19 20  2  0  0  0  0
  5 21  1  0  0  0  0
 20 21  1  0  0  0  0
  2 22  1  0  0  0  0
 21 22  2  0  0  0  0
  5 23  1  0  0  0  0
  8 23  1  0  0  0  0
 11 23  2  0  0  0  0
  8 24  1  0  0  0  0
  5 25  1  0  0  0  0
  9 25  2  0  0  0  0
 24 25  1  0  0  0  0
 24 26  1  0  0  0  0
 26 27  1  0  0  0  0
M  END
$$$$
