8QUD
  PyMOL3.1          3D                             0

 27 31  0  0  0  0  0  0  0  0999 V2000
  117.9100  110.8930  151.9390 C   0  0  0  0  0  0  0  0  0  0  0  0
  115.6860  110.5430  154.3720 N   0  0  0  0  0  0  0  0  0  0  0  0
  115.2100  113.0830  149.7500 O   0  0  0  0  0  0  0  0  0  0  0  0
  116.5820  110.5050  151.8240 C   0  0  0  0  0  0  0  0  0  0  0  0
  114.9280  109.3760  157.8010 N   0  0  0  0  0  0  0  0  0  0  0  0
  116.0730  109.3600  152.4310 O   0  0  0  0  0  0  0  0  0  0  0  0
  115.7240  111.2960  151.0730 C   0  0  0  0  0  0  0  0  0  0  0  0
  114.7940  108.6840  159.9170 N   0  0  0  0  0  0  0  0  0  0  0  0
  113.7930  111.3770  157.9410 O   0  0  0  0  0  0  0  0  0  0  0  0
  116.1900  112.4330  150.4490 C   0  0  0  0  0  0  0  0  0  0  0  0
  116.0560  107.4360  158.4630 O   0  0  0  0  0  0  0  0  0  0  0  0
  117.5080  112.8370  150.5500 C   0  0  0  0  0  0  0  0  0  0  0  0
  118.3680  112.0470  151.3070 C   0  0  0  0  0  0  0  0  0  0  0  0
  114.0590  112.1970  149.6530 C   0  0  0  0  0  0  0  0  0  0  0  0
  114.2840  111.1760  150.7440 C   0  0  0  0  0  0  0  0  0  0  0  0
  113.5490  109.8670  150.7500 C   0  0  0  0  0  0  0  0  0  0  0  0
  113.2170  110.9150  151.7660 C   0  0  0  0  0  0  0  0  0  0  0  0
  115.7930  109.3810  153.7640 C   0  0  0  0  0  0  0  0  0  0  0  0
  115.6330  108.1540  154.3780 C   0  0  0  0  0  0  0  0  0  0  0  0
  115.3460  108.1470  155.7280 C   0  0  0  0  0  0  0  0  0  0  0  0
  115.2280  109.3490  156.3950 C   0  0  0  0  0  0  0  0  0  0  0  0
  115.4030  110.5230  155.6860 C   0  0  0  0  0  0  0  0  0  0  0  0
  115.3380  108.3800  158.7290 C   0  0  0  0  0  0  0  0  0  0  0  0
  113.9980  109.9000  159.8860 C   0  0  0  0  0  0  0  0  0  0  0  0
  114.1950  110.3570  158.4450 C   0  0  0  0  0  0  0  0  0  0  0  0
  112.5270  109.6770  160.2210 C   0  0  0  0  0  0  0  0  0  0  0  0
  111.8520  110.9060  160.8040 C   0  0  0  0  0  0  0  0  0  0  0  0
  1  4  2  0  0  0  0
  4  6  1  0  0  0  0
  4  7  1  0  0  0  0
  3 10  1  0  0  0  0
  7 10  2  0  0  0  0
 10 12  1  0  0  0  0
  1 13  1  0  0  0  0
 12 13  2  0  0  0  0
  3 14  1  0  0  0  0
  7 15  1  0  0  0  0
 14 15  1  0  0  0  0
 15 16  1  0  0  0  0
 15 17  1  0  0  0  0
 16 17  1  0  0  0  0
  2 18  2  0  0  0  0
  6 18  1  0  0  0  0
 18 19  1  0  0  0  0
 19 20  2  0  0  0  0
  5 21  1  0  0  0  0
 20 21  1  0  0  0  0
  2 22  1  0  0  0  0
 21 22  2  0  0  0  0
  5 23  1  0  0  0  0
  8 23  1  0  0  0  0
 11 23  2  0  0  0  0
  8 24  1  0  0  0  0
  5 25  1  0  0  0  0
  9 25  2  0  0  0  0
 24 25  1  0  0  0  0
 24 26  1  0  0  0  0
 26 27  1  0  0  0  0
M  END
$$$$
