9C1P
  PyMOL3.1          3D                             0

 24 27  0  0  0  0  0  0  0  0999 V2000
  211.2090  237.9290  199.5820 C   0  0  0  0  0  0  0  0  0  0  0  0
  212.4840  237.2490  199.3990 N   0  0  0  0  0  0  0  0  0  0  0  0
  213.6180  238.1300  199.6970 C   0  0  0  0  0  0  0  0  0  0  0  0
  214.7530  237.4870  200.4730 C   0  0  0  0  0  0  0  0  0  0  0  0
  215.2970  236.2030  199.8590 C   0  0  0  0  0  0  0  0  0  0  0  0
  214.2810  235.0910  199.6140 C   0  0  0  0  0  0  0  0  0  0  0  0
  213.4680  235.3190  198.3550 C   0  0  0  0  0  0  0  0  0  0  0  0
  212.5870  236.4060  198.2750 C   0  0  0  0  0  0  0  0  0  0  0  0
  211.8410  236.6260  197.1210 C   0  0  0  0  0  0  0  0  0  0  0  0
  211.9760  235.7660  196.0440 C   0  0  0  0  0  0  0  0  0  0  0  0
  212.8410  234.6980  196.1100 C   0  0  0  0  0  0  0  0  0  0  0  0
  213.5840  234.4750  197.2530 C   0  0  0  0  0  0  0  0  0  0  0  0
  213.4280  234.9500  200.8060 N   0  0  0  0  0  0  0  0  0  0  0  0
  212.7440  233.6570  200.8980 C   0  0  0  0  0  0  0  0  0  0  0  0
  213.6800  232.6150  201.4730 C   0  0  0  0  0  0  0  0  0  0  0  0
  213.0080  231.2640  201.4300 C   0  0  0  0  0  0  0  0  0  0  0  0
  212.5410  230.6030  202.5360 N   0  0  0  0  0  0  0  0  0  0  0  0
  211.8450  229.1280  202.1500 S   0  0  0  0  0  0  0  0  0  0  0  0
  212.1230  229.2780  200.4590 C   0  0  0  0  0  0  0  0  0  0  0  0
  212.7680  230.5020  200.2140 C   0  0  0  0  0  0  0  0  0  0  0  0
  213.0910  230.8310  198.8980 C   0  0  0  0  0  0  0  0  0  0  0  0
  212.7760  229.9610  197.8660 C   0  0  0  0  0  0  0  0  0  0  0  0
  212.1430  228.7640  198.1240 C   0  0  0  0  0  0  0  0  0  0  0  0
  211.8100  228.4110  199.4210 C   0  0  0  0  0  0  0  0  0  0  0  0
  1  2  1  0  0  0  0
  2  3  1  0  0  0  0
  3  4  1  0  0  0  0
  4  5  1  0  0  0  0
  5  6  1  0  0  0  0
  6  7  1  0  0  0  0
  2  8  1  0  0  0  0
  7  8  1  0  0  0  0
  8  9  2  0  0  0  0
  9 10  1  0  0  0  0
 10 11  2  0  0  0  0
  7 12  2  0  0  0  0
 11 12  1  0  0  0  0
  6 13  1  0  0  0  0
 13 14  1  0  0  0  0
 14 15  1  0  0  0  0
 15 16  1  0  0  0  0
 16 17  2  0  0  0  0
 17 18  1  0  0  0  0
 18 19  1  0  0  0  0
 16 20  1  0  0  0  0
 19 20  2  0  0  0  0
 20 21  1  0  0  0  0
 21 22  2  0  0  0  0
 22 23  1  0  0  0  0
 19 24  1  0  0  0  0
 23 24  2  0  0  0  0
M  END
$$$$
