6X2J
  PyMOL3.1          3D                             0

 45 47  0  0  0  0  0  0  0  0999 V2000
  176.6670  144.0210  185.0590 C   0  0  0  0  0  0  0  0  0  0  0  0
  177.4290  144.2910  186.2340 O   0  0  0  0  0  0  0  0  0  0  0  0
  178.3520  145.3070  186.2090 C   0  0  0  0  0  0  0  0  0  0  0  0
  178.6160  146.1340  185.1220 C   0  0  0  0  0  0  0  0  0  0  0  0
  179.5670  147.1310  185.2290 C   0  0  0  0  0  0  0  0  0  0  0  0
  180.2310  147.3280  186.4300 C   0  0  0  0  0  0  0  0  0  0  0  0
  179.9620  146.5080  187.5230 C   0  0  0  0  0  0  0  0  0  0  0  0
  179.0300  145.4830  187.4030 C   0  0  0  0  0  0  0  0  0  0  0  0
  180.5980  146.8260  188.7410 N   0  0  0  0  0  0  0  0  0  0  0  0
  179.9700  147.3220  189.8300 C   0  0  0  0  0  0  0  0  0  0  0  0
  178.7690  147.5110  189.8800 O   0  0  0  0  0  0  0  0  0  0  0  0
  180.8390  147.6900  190.9550 C   0  0  0  0  0  0  0  0  0  0  0  0
  180.4340  148.1530  192.1850 C   0  0  0  0  0  0  0  0  0  0  0  0
  181.5810  148.4470  192.8210 N   0  0  0  0  0  0  0  0  0  0  0  0
  182.6460  148.2030  192.0320 N   0  0  0  0  0  0  0  0  0  0  0  0
  182.1930  147.7470  190.8920 N   0  0  0  0  0  0  0  0  0  0  0  0
  181.8030  148.9590  194.1700 C   0  0  0  0  0  0  0  0  0  0  0  0
  181.4780  147.9370  195.2290 C   0  0  0  0  0  0  0  0  0  0  0  0
  181.1190  146.6280  194.9360 C   0  0  0  0  0  0  0  0  0  0  0  0
  180.7500  145.7540  195.9400 C   0  0  0  0  0  0  0  0  0  0  0  0
  180.6860  146.2030  197.2240 C   0  0  0  0  0  0  0  0  0  0  0  0
  181.0600  147.4760  197.5660 C   0  0  0  0  0  0  0  0  0  0  0  0
  181.4600  148.3010  196.5540 C   0  0  0  0  0  0  0  0  0  0  0  0
  179.2260  148.3530  192.6940 N   0  0  0  0  0  0  0  0  0  0  0  0
  181.1550  148.3070  186.6790 O   0  0  0  0  0  0  0  0  0  0  0  0
  181.2670  149.3960  185.7600 C   0  0  0  0  0  0  0  0  0  0  0  0
  179.9790  145.0650  198.5560 Br  0  0  0  0  0  0  0  0  0  0  0  0
  181.9110  149.5230  196.8690 F   0  0  0  0  0  0  0  0  0  0  0  0
  176.0050  144.8800  184.9600 H   0  0  0  0  0  0  0  0  0  0  0  0
  177.2600  143.8460  184.1640 H   0  0  0  0  0  0  0  0  0  0  0  0
  176.0250  143.1550  185.2030 H   0  0  0  0  0  0  0  0  0  0  0  0
  178.1360  146.1350  184.1450 H   0  0  0  0  0  0  0  0  0  0  0  0
  179.7490  147.6920  184.3140 H   0  0  0  0  0  0  0  0  0  0  0  0
  178.8250  144.8090  188.2330 H   0  0  0  0  0  0  0  0  0  0  0  0
  181.5990  146.6630  188.7790 H   0  0  0  0  0  0  0  0  0  0  0  0
  182.8440  149.2680  194.2510 H   0  0  0  0  0  0  0  0  0  0  0  0
  181.2540  149.8790  194.3490 H   0  0  0  0  0  0  0  0  0  0  0  0
  181.1160  146.2690  193.9090 H   0  0  0  0  0  0  0  0  0  0  0  0
  180.5990  144.6940  195.7630 H   0  0  0  0  0  0  0  0  0  0  0  0
  181.0500  147.8100  198.6000 H   0  0  0  0  0  0  0  0  0  0  0  0
  178.4270  148.1940  192.0920 H   0  0  0  0  0  0  0  0  0  0  0  0
  179.0550  148.2640  193.6910 H   0  0  0  0  0  0  0  0  0  0  0  0
  182.0040  150.0200  186.2630 H   0  0  0  0  0  0  0  0  0  0  0  0
  181.7210  149.1400  184.8030 H   0  0  0  0  0  0  0  0  0  0  0  0
  180.3560  149.9770  185.6240 H   0  0  0  0  0  0  0  0  0  0  0  0
  1  2  1  0  0  0  0
  2  3  1  0  0  0  0
  3  4  1  0  0  0  0
  4  5  2  0  0  0  0
  5  6  1  0  0  0  0
  6  7  2  0  0  0  0
  3  8  2  0  0  0  0
  7  8  1  0  0  0  0
  7  9  1  0  0  0  0
  9 10  1  0  0  0  0
 10 11  2  0  0  0  0
 10 12  1  0  0  0  0
 12 13  2  0  0  0  0
 13 14  1  0  0  0  0
 14 15  1  0  0  0  0
 12 16  1  0  0  0  0
 15 16  2  0  0  0  0
 14 17  1  0  0  0  0
 17 18  1  0  0  0  0
 18 19  2  0  0  0  0
 19 20  1  0  0  0  0
 20 21  2  0  0  0  0
 21 22  1  0  0  0  0
 18 23  1  0  0  0  0
 22 23  2  0  0  0  0
 13 24  1  0  0  0  0
  6 25  1  0  0  0  0
 25 26  1  0  0  0  0
 21 27  1  0  0  0  0
 23 28  1  0  0  0  0
  1 29  1  0  0  0  0
  1 30  1  0  0  0  0
  1 31  1  0  0  0  0
  4 32  1  0  0  0  0
  5 33  1  0  0  0  0
  8 34  1  0  0  0  0
  9 35  1  0  0  0  0
 17 36  1  0  0  0  0
 17 37  1  0  0  0  0
 19 38  1  0  0  0  0
 20 39  1  0  0  0  0
 22 40  1  0  0  0  0
 24 41  1  0  0  0  0
 24 42  1  0  0  0  0
 26 43  1  0  0  0  0
 26 44  1  0  0  0  0
 26 45  1  0  0  0  0
M  END
$$$$
