6X2J
  PyMOL3.1          3D                             0

 45 47  0  0  0  0  0  0  0  0999 V2000
  179.9460  176.7780  184.9790 C   0  0  0  0  0  0  0  0  0  0  0  0
  179.6250  177.5280  186.1480 O   0  0  0  0  0  0  0  0  0  0  0  0
  178.5850  178.4210  186.0970 C   0  0  0  0  0  0  0  0  0  0  0  0
  177.7730  178.6570  184.9910 C   0  0  0  0  0  0  0  0  0  0  0  0
  176.7420  179.5740  185.0780 C   0  0  0  0  0  0  0  0  0  0  0  0
  176.5080  180.2350  186.2700 C   0  0  0  0  0  0  0  0  0  0  0  0
  177.3100  179.9990  187.3800 C   0  0  0  0  0  0  0  0  0  0  0  0
  178.3620  179.0960  187.2860 C   0  0  0  0  0  0  0  0  0  0  0  0
  176.9470  180.6310  188.5870 N   0  0  0  0  0  0  0  0  0  0  0  0
  176.4430  179.9840  189.6580 C   0  0  0  0  0  0  0  0  0  0  0  0
  176.2170  178.7880  189.6710 O   0  0  0  0  0  0  0  0  0  0  0  0
  176.1430  180.8150  190.8290 C   0  0  0  0  0  0  0  0  0  0  0  0
  175.6720  180.3720  192.0440 C   0  0  0  0  0  0  0  0  0  0  0  0
  175.3160  181.4950  192.6900 N   0  0  0  0  0  0  0  0  0  0  0  0
  175.5210  182.5800  191.9200 N   0  0  0  0  0  0  0  0  0  0  0  0
  176.0220  182.1660  190.7850 N   0  0  0  0  0  0  0  0  0  0  0  0
  174.8220  181.6720  194.0510 C   0  0  0  0  0  0  0  0  0  0  0  0
  175.9170  181.4530  195.0640 C   0  0  0  0  0  0  0  0  0  0  0  0
  177.2310  181.1540  194.7270 C   0  0  0  0  0  0  0  0  0  0  0  0
  178.1590  180.8390  195.6960 C   0  0  0  0  0  0  0  0  0  0  0  0
  177.7630  180.7710  196.9980 C   0  0  0  0  0  0  0  0  0  0  0  0
  176.4970  181.1160  197.3870 C   0  0  0  0  0  0  0  0  0  0  0  0
  175.6160  181.4630  196.4040 C   0  0  0  0  0  0  0  0  0  0  0  0
  175.4910  179.1460  192.5270 N   0  0  0  0  0  0  0  0  0  0  0  0
  175.5020  181.1370  186.4700 O   0  0  0  0  0  0  0  0  0  0  0  0
  174.1640  180.6560  186.3840 C   0  0  0  0  0  0  0  0  0  0  0  0
  178.9420  180.0310  198.2750 Br  0  0  0  0  0  0  0  0  0  0  0  0
  174.3790  181.8400  196.7620 F   0  0  0  0  0  0  0  0  0  0  0  0
  179.1080  176.0950  184.8490 H   0  0  0  0  0  0  0  0  0  0  0  0
  180.1410  177.3840  184.0970 H   0  0  0  0  0  0  0  0  0  0  0  0
  180.8210  176.1540  185.1530 H   0  0  0  0  0  0  0  0  0  0  0  0
  177.8160  178.1830  184.0130 H   0  0  0  0  0  0  0  0  0  0  0  0
  176.1410  179.7640  184.1900 H   0  0  0  0  0  0  0  0  0  0  0  0
  179.0210  178.8980  188.1300 H   0  0  0  0  0  0  0  0  0  0  0  0
  177.0830  181.6360  188.6320 H   0  0  0  0  0  0  0  0  0  0  0  0
  174.3790  182.6620  194.1470 H   0  0  0  0  0  0  0  0  0  0  0  0
  173.9970  180.9850  194.2320 H   0  0  0  0  0  0  0  0  0  0  0  0
  177.5490  181.1510  193.6870 H   0  0  0  0  0  0  0  0  0  0  0  0
  179.2160  180.7310  195.4720 H   0  0  0  0  0  0  0  0  0  0  0  0
  176.2090  181.1270  198.4350 H   0  0  0  0  0  0  0  0  0  0  0  0
  175.6620  178.3560  191.9170 H   0  0  0  0  0  0  0  0  0  0  0  0
  175.5490  178.9600  193.5230 H   0  0  0  0  0  0  0  0  0  0  0  0
  173.6420  181.2450  187.1360 H   0  0  0  0  0  0  0  0  0  0  0  0
  173.7110  180.8340  185.4100 H   0  0  0  0  0  0  0  0  0  0  0  0
  174.0680  179.6030  186.6460 H   0  0  0  0  0  0  0  0  0  0  0  0
  1  2  1  0  0  0  0
  2  3  1  0  0  0  0
  3  4  1  0  0  0  0
  4  5  2  0  0  0  0
  5  6  1  0  0  0  0
  6  7  2  0  0  0  0
  3  8  2  0  0  0  0
  7  8  1  0  0  0  0
  7  9  1  0  0  0  0
  9 10  1  0  0  0  0
 10 11  2  0  0  0  0
 10 12  1  0  0  0  0
 12 13  2  0  0  0  0
 13 14  1  0  0  0  0
 14 15  1  0  0  0  0
 12 16  1  0  0  0  0
 15 16  2  0  0  0  0
 14 17  1  0  0  0  0
 17 18  1  0  0  0  0
 18 19  2  0  0  0  0
 19 20  1  0  0  0  0
 20 21  2  0  0  0  0
 21 22  1  0  0  0  0
 18 23  1  0  0  0  0
 22 23  2  0  0  0  0
 13 24  1  0  0  0  0
  6 25  1  0  0  0  0
 25 26  1  0  0  0  0
 21 27  1  0  0  0  0
 23 28  1  0  0  0  0
  1 29  1  0  0  0  0
  1 30  1  0  0  0  0
  1 31  1  0  0  0  0
  4 32  1  0  0  0  0
  5 33  1  0  0  0  0
  8 34  1  0  0  0  0
  9 35  1  0  0  0  0
 17 36  1  0  0  0  0
 17 37  1  0  0  0  0
 19 38  1  0  0  0  0
 20 39  1  0  0  0  0
 22 40  1  0  0  0  0
 24 41  1  0  0  0  0
 24 42  1  0  0  0  0
 26 43  1  0  0  0  0
 26 44  1  0  0  0  0
 26 45  1  0  0  0  0
M  END
$$$$
