7U4O
  PyMOL3.1          3D                             0

 24 26  0  0  0  0  0  0  0  0999 V2000
   -3.7416    8.1975  -42.3060 C   0  0  0  0  0  0  0  0  0  0  0  0
   -3.3598    8.9987  -41.0644 C   0  0  0  0  0  0  0  0  0  0  0  0
   -4.0792   10.3601  -40.8838 C   0  0  0  0  0  0  0  0  0  0  0  0
   -3.3128   11.6040  -40.4208 C   0  0  0  0  0  0  0  0  0  0  0  0
   -1.5828   11.5988  -40.1918 S   0  0  0  0  0  0  0  0  0  0  0  0
   -1.4710   13.2555  -39.6923 C   0  0  0  0  0  0  0  0  0  0  0  0
   -2.6849   13.8385  -39.6826 C   0  0  0  0  0  0  0  0  0  0  0  0
   -3.0208   15.2401  -39.3241 C   0  0  0  0  0  0  0  0  0  0  0  0
   -4.5206   15.5643  -39.0293 C   0  0  0  0  0  0  0  0  0  0  0  0
   -5.5344   14.6494  -39.6280 C   0  0  0  0  0  0  0  0  0  0  0  0
   -6.9142   14.9127  -39.7547 C   0  0  0  0  0  0  0  0  0  0  0  0
   -7.8372   14.0704  -40.3024 N   0  0  0  0  0  0  0  0  0  0  0  0
   -7.3742   12.8797  -40.7609 C   0  0  0  0  0  0  0  0  0  0  0  0
   -8.5299   11.6664  -41.5162 S   0  0  0  0  0  0  0  0  0  0  0  0
   -7.7887    9.9688  -41.8821 C   0  0  0  0  0  0  0  0  0  0  0  0
   -8.3589    8.8099  -41.0709 C   0  0  0  0  0  0  0  0  0  0  0  0
   -8.6802    8.9788  -39.9185 O   0  0  0  0  0  0  0  0  0  0  0  0
   -8.5498    7.4099  -41.6647 C   0  0  0  0  0  0  0  0  0  0  0  0
   -9.9801    6.9070  -41.3527 C   0  0  0  0  0  0  0  0  0  0  0  0
   -7.5396    6.4752  -41.0028 C   0  0  0  0  0  0  0  0  0  0  0  0
   -8.3417    7.4453  -43.1734 C   0  0  0  0  0  0  0  0  0  0  0  0
   -6.0651   12.5163  -40.6930 N   0  0  0  0  0  0  0  0  0  0  0  0
   -5.1533   13.3735  -40.1425 C   0  0  0  0  0  0  0  0  0  0  0  0
   -3.7454   12.8871  -40.1052 C   0  0  0  0  0  0  0  0  0  0  0  0
  1  2  1  0  0  0  0
  2  3  1  0  0  0  0
  3  4  1  0  0  0  0
  4  5  1  0  0  0  0
  5  6  1  0  0  0  0
  6  7  2  0  0  0  0
  7  8  1  0  0  0  0
  8  9  1  0  0  0  0
  9 10  1  0  0  0  0
 10 11  1  0  0  0  0
 11 12  2  0  0  0  0
 12 13  1  0  0  0  0
 13 14  1  0  0  0  0
 14 15  1  0  0  0  0
 15 16  1  0  0  0  0
 16 17  2  0  0  0  0
 16 18  1  0  0  0  0
 18 19  1  0  0  0  0
 18 20  1  0  0  0  0
 18 21  1  0  0  0  0
 13 22  2  0  0  0  0
 10 23  2  0  0  0  0
 22 23  1  0  0  0  0
  4 24  2  0  0  0  0
  7 24  1  0  0  0  0
 23 24  1  0  0  0  0
M  END
$$$$
