8K9L
  PyMOL3.1          3D                             0

 39 41  0  0  0  0  0  0  0  0999 V2000
  106.5950  108.6900  112.9920 Cl  0  0  0  0  0  0  0  0  0  0  0  0
  110.6530  108.0880   99.5480 C   0  0  0  0  0  0  0  0  0  0  0  0
  109.7860  108.9450  100.3000 O   0  0  0  0  0  0  0  0  0  0  0  0
  109.8870  108.9530  101.6570 C   0  0  0  0  0  0  0  0  0  0  0  0
  109.9490  107.8040  102.4280 C   0  0  0  0  0  0  0  0  0  0  0  0
  110.0640  107.8860  103.8060 C   0  0  0  0  0  0  0  0  0  0  0  0
  110.0060  109.1080  104.4610 C   0  0  0  0  0  0  0  0  0  0  0  0
  110.1610  109.2510  105.9540 C   0  0  0  0  0  0  0  0  0  0  0  0
  109.4030  108.2380  106.6910 N   0  0  0  0  0  0  0  0  0  0  0  0
  107.7930  108.3970  106.8750 S   0  0  0  0  0  0  0  0  0  0  0  0
  107.4580  108.4690  108.6020 C   0  0  0  0  0  0  0  0  0  0  0  0
  107.0920  107.3200  109.2850 C   0  0  0  0  0  0  0  0  0  0  0  0
  106.8320  107.3900  110.6410 C   0  0  0  0  0  0  0  0  0  0  0  0
  106.9280  108.6020  111.2860 C   0  0  0  0  0  0  0  0  0  0  0  0
  107.2810  109.7490  110.6110 C   0  0  0  0  0  0  0  0  0  0  0  0
  107.5460  109.6850  109.2570 C   0  0  0  0  0  0  0  0  0  0  0  0
  107.4290  109.6540  106.3040 O   0  0  0  0  0  0  0  0  0  0  0  0
  107.2130  107.1940  106.3690 O   0  0  0  0  0  0  0  0  0  0  0  0
  110.1610  107.7860  107.8830 C   0  0  0  0  0  0  0  0  0  0  0  0
  111.5640  107.5750  107.3540 C   0  0  0  0  0  0  0  0  0  0  0  0
  111.9440  109.0730  106.4460 S   0  0  0  0  0  0  0  0  0  0  0  0
  109.9740  110.2590  103.6950 C   0  0  0  0  0  0  0  0  0  0  0  0
  109.8920  110.1840  102.3190 C   0  0  0  0  0  0  0  0  0  0  0  0
  109.7990  111.8230  101.3670 Br  0  0  0  0  0  0  0  0  0  0  0  0
  107.0340  106.4990  108.8360 H   0  0  0  0  0  0  0  0  0  0  0  0
  106.5900  106.6210  111.1160 H   0  0  0  0  0  0  0  0  0  0  0  0
  107.3420  110.5650  111.0650 H   0  0  0  0  0  0  0  0  0  0  0  0
  107.7870  110.4570  108.7880 H   0  0  0  0  0  0  0  0  0  0  0  0
  110.4050  107.1590   99.6910 H   0  0  0  0  0  0  0  0  0  0  0  0
  111.5740  108.2260   99.8230 H   0  0  0  0  0  0  0  0  0  0  0  0
  110.5630  108.2970   98.6030 H   0  0  0  0  0  0  0  0  0  0  0  0
  109.9410  106.9660  102.0080 H   0  0  0  0  0  0  0  0  0  0  0  0
  110.0770  107.0920  104.3080 H   0  0  0  0  0  0  0  0  0  0  0  0
  109.8550  110.1480  106.2280 H   0  0  0  0  0  0  0  0  0  0  0  0
  109.7970  106.9490  108.2390 H   0  0  0  0  0  0  0  0  0  0  0  0
  110.1540  108.4660  108.5900 H   0  0  0  0  0  0  0  0  0  0  0  0
  112.1910  107.4680  108.0930 H   0  0  0  0  0  0  0  0  0  0  0  0
  111.6000  106.8040  106.7580 H   0  0  0  0  0  0  0  0  0  0  0  0
  109.9820  111.1010  104.1180 H   0  0  0  0  0  0  0  0  0  0  0  0
  2  3  1  0  0  0  0
  3  4  1  0  0  0  0
  4  5  2  0  0  0  0
  5  6  1  0  0  0  0
  6  7  2  0  0  0  0
  7  8  1  0  0  0  0
  8  9  1  0  0  0  0
  9 10  1  0  0  0  0
 10 11  1  0  0  0  0
 11 12  2  0  0  0  0
 12 13  1  0  0  0  0
  1 14  1  0  0  0  0
 13 14  2  0  0  0  0
 14 15  1  0  0  0  0
 11 16  1  0  0  0  0
 15 16  2  0  0  0  0
 10 17  2  0  0  0  0
 10 18  2  0  0  0  0
  9 19  1  0  0  0  0
 19 20  1  0  0  0  0
  8 21  1  0  0  0  0
 20 21  1  0  0  0  0
  7 22  1  0  0  0  0
  4 23  1  0  0  0  0
 22 23  2  0  0  0  0
 23 24  1  0  0  0  0
 12 25  1  0  0  0  0
 13 26  1  0  0  0  0
 15 27  1  0  0  0  0
 16 28  1  0  0  0  0
  2 29  1  0  0  0  0
  2 30  1  0  0  0  0
  2 31  1  0  0  0  0
  5 32  1  0  0  0  0
  6 33  1  0  0  0  0
  8 34  1  0  0  0  0
 19 35  1  0  0  0  0
 19 36  1  0  0  0  0
 20 37  1  0  0  0  0
 20 38  1  0  0  0  0
 22 39  1  0  0  0  0
M  END
$$$$
