9EMA
  PyMOL3.1          3D                             0

120129  0  0  0  0  0  0  0  0999 V2000
  151.7580  120.1320  121.1000 Cl  0  0  0  0  0  0  0  0  0  0  0  0
  155.2760  131.2370  122.8170 C   0  0  0  0  0  0  0  0  0  0  0  0
  154.6410  131.2300  121.5640 O   0  0  0  0  0  0  0  0  0  0  0  0
  154.1220  132.4690  121.1870 C   0  0  0  0  0  0  0  0  0  0  0  0
  153.5150  132.3140  119.7930 C   0  0  0  0  0  0  0  0  0  0  0  0
  152.2210  131.5460  119.4070 C   0  0  0  0  0  0  0  0  0  0  0  0
  151.3170  130.8370  120.2730 N   0  0  0  0  0  0  0  0  0  0  0  0
  151.4470  129.4210  120.4470 C   0  0  0  0  0  0  0  0  0  0  0  0
  150.4690  128.6870  121.3560 C   0  0  0  0  0  0  0  0  0  0  0  0
  150.9860  128.4550  122.7640 C   0  0  0  0  0  0  0  0  0  0  0  0
  149.9330  127.6920  123.5660 C   0  0  0  0  0  0  0  0  0  0  0  0
  151.2670  129.7860  123.4490 C   0  0  0  0  0  0  0  0  0  0  0  0
  152.2780  127.6460  122.6920 C   0  0  0  0  0  0  0  0  0  0  0  0
  152.1280  126.5910  121.7190 N   0  0  0  0  0  0  0  0  0  0  0  0
  151.7450  125.2660  122.1280 C   0  0  0  0  0  0  0  0  0  0  0  0
  151.6010  124.1680  121.0920 C   0  0  0  0  0  0  0  0  0  0  0  0
  151.3680  124.4690  119.7580 C   0  0  0  0  0  0  0  0  0  0  0  0
  151.2400  125.7950  119.3300 O   0  0  0  0  0  0  0  0  0  0  0  0
  150.7570  125.9470  118.0200 C   0  0  0  0  0  0  0  0  0  0  0  0
  149.5620  126.8910  118.0300 C   0  0  0  0  0  0  0  0  0  0  0  0
  151.2470  123.4460  118.8470 C   0  0  0  0  0  0  0  0  0  0  0  0
  151.3700  122.1390  119.2680 C   0  0  0  0  0  0  0  0  0  0  0  0
  151.6060  121.8330  120.5880 C   0  0  0  0  0  0  0  0  0  0  0  0
  151.7220  122.8540  121.5050 C   0  0  0  0  0  0  0  0  0  0  0  0
  151.5590  125.0250  123.2670 O   0  0  0  0  0  0  0  0  0  0  0  0
  152.3060  128.8380  119.8810 O   0  0  0  0  0  0  0  0  0  0  0  0
  152.0860  131.7150  117.8620 C   0  0  0  0  0  0  0  0  0  0  0  0
  153.2270  132.5010  117.4650 N   0  0  0  0  0  0  0  0  0  0  0  0
  154.0080  132.8310  118.5300 N   0  0  0  0  0  0  0  0  0  0  0  0
  155.2530  133.6180  118.6210 C   0  0  0  0  0  0  0  0  0  0  0  0
  155.0340  135.0720  118.2390 C   0  0  0  0  0  0  0  0  0  0  0  0
  153.9050  135.2770  117.2420 C   0  0  0  0  0  0  0  0  0  0  0  0
  153.6700  133.0230  116.1410 C   0  0  0  0  0  0  0  0  0  0  0  0
  153.9910  134.3450  116.0140 C   0  0  0  0  0  0  0  0  0  0  0  0
  154.4040  134.8500  114.7580 C   0  0  0  0  0  0  0  0  0  0  0  0
  154.4760  133.9900  113.6650 C   0  0  0  0  0  0  0  0  0  0  0  0
  154.1410  132.6370  113.8000 C   0  0  0  0  0  0  0  0  0  0  0  0
  153.7350  132.1400  115.0300 C   0  0  0  0  0  0  0  0  0  0  0  0
  151.2330  131.2850  117.1610 O   0  0  0  0  0  0  0  0  0  0  0  0
  151.2560  121.1480  118.3660 F   0  0  0  0  0  0  0  0  0  0  0  0
  112.5970  149.4000  119.6890 Cl  0  0  0  0  0  0  0  0  0  0  0  0
  101.5230  146.9310  121.3660 C   0  0  0  0  0  0  0  0  0  0  0  0
  101.6330  146.4920  120.0370 O   0  0  0  0  0  0  0  0  0  0  0  0
  100.6690  145.5510  119.6730 C   0  0  0  0  0  0  0  0  0  0  0  0
  101.0840  144.9380  118.3340 C   0  0  0  0  0  0  0  0  0  0  0  0
  102.3380  144.0700  118.0280 C   0  0  0  0  0  0  0  0  0  0  0  0
  103.3740  143.6560  118.9370 N   0  0  0  0  0  0  0  0  0  0  0  0
  104.5730  144.4400  119.0530 C   0  0  0  0  0  0  0  0  0  0  0  0
  105.6750  144.0050  120.0060 C   0  0  0  0  0  0  0  0  0  0  0  0
  105.6000  144.6940  121.3540 C   0  0  0  0  0  0  0  0  0  0  0  0
  106.7180  144.1640  122.2510 C   0  0  0  0  0  0  0  0  0  0  0  0
  104.2570  144.3800  122.0060 C   0  0  0  0  0  0  0  0  0  0  0  0
  105.7140  146.2100  121.1730 C   0  0  0  0  0  0  0  0  0  0  0  0
  106.7380  146.5600  120.2160 N   0  0  0  0  0  0  0  0  0  0  0  0
  108.0300  147.0240  120.6550 C   0  0  0  0  0  0  0  0  0  0  0  0
  109.0980  147.3960  119.6370 C   0  0  0  0  0  0  0  0  0  0  0  0
  108.9730  147.0210  118.3090 C   0  0  0  0  0  0  0  0  0  0  0  0
  107.8600  146.2980  117.8740 O   0  0  0  0  0  0  0  0  0  0  0  0
  108.1030  144.9430  117.6250 C   0  0  0  0  0  0  0  0  0  0  0  0
  108.1750  144.7440  116.1170 C   0  0  0  0  0  0  0  0  0  0  0  0
  109.9470  147.3800  117.4000 C   0  0  0  0  0  0  0  0  0  0  0  0
  111.0530  148.0970  117.8150 C   0  0  0  0  0  0  0  0  0  0  0  0
  111.1790  148.4710  119.1390 C   0  0  0  0  0  0  0  0  0  0  0  0
  110.2040  148.1170  120.0500 C   0  0  0  0  0  0  0  0  0  0  0  0
  108.2640  147.1230  121.8080 O   0  0  0  0  0  0  0  0  0  0  0  0
  104.6950  145.4190  118.4020 O   0  0  0  0  0  0  0  0  0  0  0  0
  102.2430  143.7280  116.5080 C   0  0  0  0  0  0  0  0  0  0  0  0
  101.0380  144.3730  116.0500 N   0  0  0  0  0  0  0  0  0  0  0  0
  100.4010  145.0320  117.0590 N   0  0  0  0  0  0  0  0  0  0  0  0
   99.1510  145.8190  117.0790 C   0  0  0  0  0  0  0  0  0  0  0  0
   97.9300  144.9640  116.7760 C   0  0  0  0  0  0  0  0  0  0  0  0
   98.2530  143.7550  115.9140 C   0  0  0  0  0  0  0  0  0  0  0  0
  100.3670  144.4260  114.7230 C   0  0  0  0  0  0  0  0  0  0  0  0
   99.0370  144.1270  114.6360 C   0  0  0  0  0  0  0  0  0  0  0  0
   98.3890  144.1670  113.3780 C   0  0  0  0  0  0  0  0  0  0  0  0
   99.1200  144.5090  112.2410 C   0  0  0  0  0  0  0  0  0  0  0  0
  100.4840  144.8090  112.3370 C   0  0  0  0  0  0  0  0  0  0  0  0
  101.1240  144.7720  113.5690 C   0  0  0  0  0  0  0  0  0  0  0  0
  103.0000  143.0810  115.8650 O   0  0  0  0  0  0  0  0  0  0  0  0
  112.0050  148.4320  116.9070 F   0  0  0  0  0  0  0  0  0  0  0  0
  106.8060  100.5040  120.1550 Cl  0  0  0  0  0  0  0  0  0  0  0  0
  116.6350   91.5720  122.1440 C   0  0  0  0  0  0  0  0  0  0  0  0
  116.5830   92.5860  121.1760 O   0  0  0  0  0  0  0  0  0  0  0  0
  115.4010   92.6100  120.4330 C   0  0  0  0  0  0  0  0  0  0  0  0
  115.7480   93.1980  119.0650 C   0  0  0  0  0  0  0  0  0  0  0  0
  115.5950   94.6710  118.5950 C   0  0  0  0  0  0  0  0  0  0  0  0
  115.0560   95.7770  119.3490 N   0  0  0  0  0  0  0  0  0  0  0  0
  115.7900   96.4820  120.3580 C   0  0  0  0  0  0  0  0  0  0  0  0
  115.1010   97.6290  121.0840 C   0  0  0  0  0  0  0  0  0  0  0  0
  114.3220   97.1660  122.3020 C   0  0  0  0  0  0  0  0  0  0  0  0
  113.9220   98.3820  123.1360 C   0  0  0  0  0  0  0  0  0  0  0  0
  115.2110   96.2610  123.1470 C   0  0  0  0  0  0  0  0  0  0  0  0
  113.0860   96.3630  121.8870 C   0  0  0  0  0  0  0  0  0  0  0  0
  112.3060   97.0360  120.8740 N   0  0  0  0  0  0  0  0  0  0  0  0
  111.2060   97.8920  121.2430 C   0  0  0  0  0  0  0  0  0  0  0  0
  110.3750   98.6010  120.1860 C   0  0  0  0  0  0  0  0  0  0  0  0
  110.8080   98.7200  118.8710 C   0  0  0  0  0  0  0  0  0  0  0  0
  112.0360   98.1830  118.4680 O   0  0  0  0  0  0  0  0  0  0  0  0
  112.4190   98.4830  117.1520 C   0  0  0  0  0  0  0  0  0  0  0  0
  113.2940   99.7300  117.1420 C   0  0  0  0  0  0  0  0  0  0  0  0
  110.0140   99.3800  117.9560 C   0  0  0  0  0  0  0  0  0  0  0  0
  108.8030   99.9160  118.3530 C   0  0  0  0  0  0  0  0  0  0  0  0
  108.3710   99.8030  119.6580 C   0  0  0  0  0  0  0  0  0  0  0  0
  109.1660   99.1520  120.5760 C   0  0  0  0  0  0  0  0  0  0  0  0
  110.9370   98.0500  122.3800 O   0  0  0  0  0  0  0  0  0  0  0  0
  116.9050   96.1740  120.6160 O   0  0  0  0  0  0  0  0  0  0  0  0
  116.1040   94.6800  117.1170 C   0  0  0  0  0  0  0  0  0  0  0  0
  116.5030   93.3190  116.8420 N   0  0  0  0  0  0  0  0  0  0  0  0
  116.3070   92.5060  117.9220 N   0  0  0  0  0  0  0  0  0  0  0  0
  116.5350   91.0610  118.1590 C   0  0  0  0  0  0  0  0  0  0  0  0
  117.9500   90.5690  117.9100 C   0  0  0  0  0  0  0  0  0  0  0  0
  118.7780   91.5180  117.0690 C   0  0  0  0  0  0  0  0  0  0  0  0
  117.0690   92.6720  115.6240 C   0  0  0  0  0  0  0  0  0  0  0  0
  118.1320   91.8190  115.7030 C   0  0  0  0  0  0  0  0  0  0  0  0
  118.6420   91.2180  114.5280 C   0  0  0  0  0  0  0  0  0  0  0  0
  118.0520   91.4980  113.3010 C   0  0  0  0  0  0  0  0  0  0  0  0
  116.9620   92.3710  113.2250 C   0  0  0  0  0  0  0  0  0  0  0  0
  116.4600   92.9630  114.3730 C   0  0  0  0  0  0  0  0  0  0  0  0
  116.1550   95.6050  116.3780 O   0  0  0  0  0  0  0  0  0  0  0  0
  108.0330  100.5560  117.4470 F   0  0  0  0  0  0  0  0  0  0  0  0
  2  3  1  0  0  0  0
  3  4  1  0  0  0  0
  4  5  1  0  0  0  0
  5  6  2  0  0  0  0
  6  7  1  0  0  0  0
  7  8  1  0  0  0  0
  8  9  1  0  0  0  0
  9 10  1  0  0  0  0
 10 11  1  0  0  0  0
 10 12  1  0  0  0  0
 10 13  1  0  0  0  0
 13 14  1  0  0  0  0
 14 15  1  0  0  0  0
 15 16  1  0  0  0  0
 16 17  2  0  0  0  0
 17 18  1  0  0  0  0
 18 19  1  0  0  0  0
 19 20  1  0  0  0  0
 17 21  1  0  0  0  0
 21 22  2  0  0  0  0
  1 23  1  0  0  0  0
 22 23  1  0  0  0  0
 16 24  1  0  0  0  0
 23 24  2  0  0  0  0
 15 25  2  0  0  0  0
  8 26  2  0  0  0  0
  6 27  1  0  0  0  0
 27 28  1  0  0  0  0
  5 29  1  0  0  0  0
 28 29  1  0  0  0  0
 29 30  1  0  0  0  0
 30 31  1  0  0  0  0
 31 32  1  0  0  0  0
 28 33  1  0  0  0  0
 32 34  1  0  0  0  0
 33 34  1  0  0  0  0
 34 35  2  0  0  0  0
 35 36  1  0  0  0  0
 36 37  2  0  0  0  0
 33 38  2  0  0  0  0
 37 38  1  0  0  0  0
 27 39  2  0  0  0  0
 22 40  1  0  0  0  0
 42 43  1  0  0  0  0
 43 44  1  0  0  0  0
 44 45  1  0  0  0  0
 45 46  2  0  0  0  0
 46 47  1  0  0  0  0
 47 48  1  0  0  0  0
 48 49  1  0  0  0  0
 49 50  1  0  0  0  0
 50 51  1  0  0  0  0
 50 52  1  0  0  0  0
 50 53  1  0  0  0  0
 53 54  1  0  0  0  0
 54 55  1  0  0  0  0
 55 56  1  0  0  0  0
 56 57  2  0  0  0  0
 57 58  1  0  0  0  0
 58 59  1  0  0  0  0
 59 60  1  0  0  0  0
 57 61  1  0  0  0  0
 61 62  2  0  0  0  0
 41 63  1  0  0  0  0
 62 63  1  0  0  0  0
 56 64  1  0  0  0  0
 63 64  2  0  0  0  0
 55 65  2  0  0  0  0
 48 66  2  0  0  0  0
 46 67  1  0  0  0  0
 67 68  1  0  0  0  0
 45 69  1  0  0  0  0
 68 69  1  0  0  0  0
 69 70  1  0  0  0  0
 70 71  1  0  0  0  0
 71 72  1  0  0  0  0
 68 73  1  0  0  0  0
 72 74  1  0  0  0  0
 73 74  1  0  0  0  0
 74 75  2  0  0  0  0
 75 76  1  0  0  0  0
 76 77  2  0  0  0  0
 73 78  2  0  0  0  0
 77 78  1  0  0  0  0
 67 79  2  0  0  0  0
 62 80  1  0  0  0  0
 82 83  1  0  0  0  0
 83 84  1  0  0  0  0
 84 85  1  0  0  0  0
 85 86  2  0  0  0  0
 86 87  1  0  0  0  0
 87 88  1  0  0  0  0
 88 89  1  0  0  0  0
 89 90  1  0  0  0  0
 90 91  1  0  0  0  0
 90 92  1  0  0  0  0
 90 93  1  0  0  0  0
 93 94  1  0  0  0  0
 94 95  1  0  0  0  0
 95 96  1  0  0  0  0
 96 97  2  0  0  0  0
 97 98  1  0  0  0  0
 98 99  1  0  0  0  0
 99100  1  0  0  0  0
 97101  1  0  0  0  0
101102  2  0  0  0  0
 81103  1  0  0  0  0
102103  1  0  0  0  0
 96104  1  0  0  0  0
103104  2  0  0  0  0
 95105  2  0  0  0  0
 88106  2  0  0  0  0
 86107  1  0  0  0  0
107108  1  0  0  0  0
 85109  1  0  0  0  0
108109  1  0  0  0  0
109110  1  0  0  0  0
110111  1  0  0  0  0
111112  1  0  0  0  0
108113  1  0  0  0  0
112114  1  0  0  0  0
113114  1  0  0  0  0
114115  2  0  0  0  0
115116  1  0  0  0  0
116117  2  0  0  0  0
113118  2  0  0  0  0
117118  1  0  0  0  0
107119  2  0  0  0  0
102120  1  0  0  0  0
M  END
$$$$
