9EMA
  PyMOL3.1          3D                             0

 40 43  0  0  0  0  0  0  0  0999 V2000
  151.7580  120.1320  121.1000 Cl  0  0  0  0  0  0  0  0  0  0  0  0
  155.2760  131.2370  122.8170 C   0  0  0  0  0  0  0  0  0  0  0  0
  154.6410  131.2300  121.5640 O   0  0  0  0  0  0  0  0  0  0  0  0
  154.1220  132.4690  121.1870 C   0  0  0  0  0  0  0  0  0  0  0  0
  153.5150  132.3140  119.7930 C   0  0  0  0  0  0  0  0  0  0  0  0
  152.2210  131.5460  119.4070 C   0  0  0  0  0  0  0  0  0  0  0  0
  151.3170  130.8370  120.2730 N   0  0  0  0  0  0  0  0  0  0  0  0
  151.4470  129.4210  120.4470 C   0  0  0  0  0  0  0  0  0  0  0  0
  150.4690  128.6870  121.3560 C   0  0  0  0  0  0  0  0  0  0  0  0
  150.9860  128.4550  122.7640 C   0  0  0  0  0  0  0  0  0  0  0  0
  149.9330  127.6920  123.5660 C   0  0  0  0  0  0  0  0  0  0  0  0
  151.2670  129.7860  123.4490 C   0  0  0  0  0  0  0  0  0  0  0  0
  152.2780  127.6460  122.6920 C   0  0  0  0  0  0  0  0  0  0  0  0
  152.1280  126.5910  121.7190 N   0  0  0  0  0  0  0  0  0  0  0  0
  151.7450  125.2660  122.1280 C   0  0  0  0  0  0  0  0  0  0  0  0
  151.6010  124.1680  121.0920 C   0  0  0  0  0  0  0  0  0  0  0  0
  151.3680  124.4690  119.7580 C   0  0  0  0  0  0  0  0  0  0  0  0
  151.2400  125.7950  119.3300 O   0  0  0  0  0  0  0  0  0  0  0  0
  150.7570  125.9470  118.0200 C   0  0  0  0  0  0  0  0  0  0  0  0
  149.5620  126.8910  118.0300 C   0  0  0  0  0  0  0  0  0  0  0  0
  151.2470  123.4460  118.8470 C   0  0  0  0  0  0  0  0  0  0  0  0
  151.3700  122.1390  119.2680 C   0  0  0  0  0  0  0  0  0  0  0  0
  151.6060  121.8330  120.5880 C   0  0  0  0  0  0  0  0  0  0  0  0
  151.7220  122.8540  121.5050 C   0  0  0  0  0  0  0  0  0  0  0  0
  151.5590  125.0250  123.2670 O   0  0  0  0  0  0  0  0  0  0  0  0
  152.3060  128.8380  119.8810 O   0  0  0  0  0  0  0  0  0  0  0  0
  152.0860  131.7150  117.8620 C   0  0  0  0  0  0  0  0  0  0  0  0
  153.2270  132.5010  117.4650 N   0  0  0  0  0  0  0  0  0  0  0  0
  154.0080  132.8310  118.5300 N   0  0  0  0  0  0  0  0  0  0  0  0
  155.2530  133.6180  118.6210 C   0  0  0  0  0  0  0  0  0  0  0  0
  155.0340  135.0720  118.2390 C   0  0  0  0  0  0  0  0  0  0  0  0
  153.9050  135.2770  117.2420 C   0  0  0  0  0  0  0  0  0  0  0  0
  153.6700  133.0230  116.1410 C   0  0  0  0  0  0  0  0  0  0  0  0
  153.9910  134.3450  116.0140 C   0  0  0  0  0  0  0  0  0  0  0  0
  154.4040  134.8500  114.7580 C   0  0  0  0  0  0  0  0  0  0  0  0
  154.4760  133.9900  113.6650 C   0  0  0  0  0  0  0  0  0  0  0  0
  154.1410  132.6370  113.8000 C   0  0  0  0  0  0  0  0  0  0  0  0
  153.7350  132.1400  115.0300 C   0  0  0  0  0  0  0  0  0  0  0  0
  151.2330  131.2850  117.1610 O   0  0  0  0  0  0  0  0  0  0  0  0
  151.2560  121.1480  118.3660 F   0  0  0  0  0  0  0  0  0  0  0  0
  2  3  1  0  0  0  0
  3  4  1  0  0  0  0
  4  5  1  0  0  0  0
  5  6  2  0  0  0  0
  6  7  1  0  0  0  0
  7  8  1  0  0  0  0
  8  9  1  0  0  0  0
  9 10  1  0  0  0  0
 10 11  1  0  0  0  0
 10 12  1  0  0  0  0
 10 13  1  0  0  0  0
 13 14  1  0  0  0  0
 14 15  1  0  0  0  0
 15 16  1  0  0  0  0
 16 17  2  0  0  0  0
 17 18  1  0  0  0  0
 18 19  1  0  0  0  0
 19 20  1  0  0  0  0
 17 21  1  0  0  0  0
 21 22  2  0  0  0  0
  1 23  1  0  0  0  0
 22 23  1  0  0  0  0
 16 24  1  0  0  0  0
 23 24  2  0  0  0  0
 15 25  2  0  0  0  0
  8 26  2  0  0  0  0
  6 27  1  0  0  0  0
 27 28  1  0  0  0  0
  5 29  1  0  0  0  0
 28 29  1  0  0  0  0
 29 30  1  0  0  0  0
 30 31  1  0  0  0  0
 31 32  1  0  0  0  0
 28 33  1  0  0  0  0
 32 34  1  0  0  0  0
 33 34  1  0  0  0  0
 34 35  2  0  0  0  0
 35 36  1  0  0  0  0
 36 37  2  0  0  0  0
 33 38  2  0  0  0  0
 37 38  1  0  0  0  0
 27 39  2  0  0  0  0
 22 40  1  0  0  0  0
M  END
$$$$
