8BHO
  PyMOL3.1          3D                             0

 44 47  0  0  0  0  0  0  0  0999 V2000
  157.0435  190.8867  194.5320 N   0  0  0  0  0  0  0  0  0  0  0  0
  150.8062  190.6224  193.9967 C   0  0  0  0  0  0  0  0  0  0  0  0
  152.8367  190.5116  195.2501 O   0  0  0  0  0  0  0  0  0  0  0  0
  151.4076  190.2188  195.2884 C   0  0  0  0  0  0  0  0  0  0  0  0
  155.8804  189.1471  195.2981 N   0  0  0  0  0  0  0  0  0  0  0  0
  153.1514  188.7640  193.8816 O   0  0  0  0  0  0  0  0  0  0  0  0
  153.5923  189.6826  194.5265 C   0  0  0  0  0  0  0  0  0  0  0  0
  155.9608  192.6442  192.1409 N   0  0  0  0  0  0  0  0  0  0  0  0
  157.6840  192.1123  190.8112 O   0  0  0  0  0  0  0  0  0  0  0  0
  155.0343  190.0117  194.6189 C   0  0  0  0  0  0  0  0  0  0  0  0
  161.2756  194.4002  193.6873 O   0  0  0  0  0  0  0  0  0  0  0  0
  155.7322  191.0979  194.1296 C   0  0  0  0  0  0  0  0  0  0  0  0
  157.0650  189.7054  195.2217 C   0  0  0  0  0  0  0  0  0  0  0  0
  158.1257  191.7785  194.2714 C   0  0  0  0  0  0  0  0  0  0  0  0
  159.0940  191.9383  195.2559 C   0  0  0  0  0  0  0  0  0  0  0  0
  160.1458  192.8153  195.0576 C   0  0  0  0  0  0  0  0  0  0  0  0
  160.2333  193.5333  193.8762 C   0  0  0  0  0  0  0  0  0  0  0  0
  159.2779  193.3834  192.8826 C   0  0  0  0  0  0  0  0  0  0  0  0
  158.2144  192.5007  193.0704 C   0  0  0  0  0  0  0  0  0  0  0  0
  157.2661  192.3999  191.9172 C   0  0  0  0  0  0  0  0  0  0  0  0
  155.2225  192.2669  193.3468 C   0  0  0  0  0  0  0  0  0  0  0  0
  153.7904  192.1307  192.8249 C   0  0  0  0  0  0  0  0  0  0  0  0
  153.7027  193.2254  191.7725 C   0  0  0  0  0  0  0  0  0  0  0  0
  155.0971  193.3068  191.1503 C   0  0  0  0  0  0  0  0  0  0  0  0
  162.5576  193.8387  193.4204 C   0  0  0  0  0  0  0  0  0  0  0  0
  155.2921  193.1129  194.0286 H   0  0  0  0  0  0  0  0  0  0  0  0
  151.2538  190.1140  193.1443 H   0  0  0  0  0  0  0  0  0  0  0  0
  149.7415  190.3949  193.9837 H   0  0  0  0  0  0  0  0  0  0  0  0
  150.9038  191.6890  193.8024 H   0  0  0  0  0  0  0  0  0  0  0  0
  151.2537  189.1592  195.4839 H   0  0  0  0  0  0  0  0  0  0  0  0
  150.9709  190.7584  196.1273 H   0  0  0  0  0  0  0  0  0  0  0  0
  157.9691  189.2817  195.6560 H   0  0  0  0  0  0  0  0  0  0  0  0
  159.0389  191.3805  196.1893 H   0  0  0  0  0  0  0  0  0  0  0  0
  160.9063  192.9454  195.8259 H   0  0  0  0  0  0  0  0  0  0  0  0
  159.3457  193.9461  191.9531 H   0  0  0  0  0  0  0  0  0  0  0  0
  153.0549  192.2676  193.6147 H   0  0  0  0  0  0  0  0  0  0  0  0
  153.5890  191.1456  192.4093 H   0  0  0  0  0  0  0  0  0  0  0  0
  152.9356  193.0258  191.0263 H   0  0  0  0  0  0  0  0  0  0  0  0
  153.4090  194.1744  192.2178 H   0  0  0  0  0  0  0  0  0  0  0  0
  155.4291  194.3276  190.9697 H   0  0  0  0  0  0  0  0  0  0  0  0
  155.1468  192.8049  190.1853 H   0  0  0  0  0  0  0  0  0  0  0  0
  163.3862  194.5002  193.6673 H   0  0  0  0  0  0  0  0  0  0  0  0
  162.5334  193.6640  192.3460 H   0  0  0  0  0  0  0  0  0  0  0  0
  162.6938  192.8870  193.9302 H   0  0  0  0  0  0  0  0  0  0  0  0
  2  4  1  0  0  0  0
  3  4  1  0  0  0  0
  3  7  1  0  0  0  0
  6  7  2  0  0  0  0
  5 10  1  0  0  0  0
  7 10  1  0  0  0  0
  1 12  1  0  0  0  0
 10 12  2  0  0  0  0
  1 13  1  0  0  0  0
  5 13  2  0  0  0  0
  1 14  1  0  0  0  0
 14 15  2  0  0  0  0
 15 16  1  0  0  0  0
 11 17  1  0  0  0  0
 16 17  2  0  0  0  0
 17 18  1  0  0  0  0
 14 19  1  0  0  0  0
 18 19  2  0  0  0  0
  8 20  1  0  0  0  0
  9 20  2  0  0  0  0
 19 20  1  0  0  0  0
  8 21  1  0  0  0  0
 12 21  1  0  0  0  0
 21 22  1  0  0  0  0
 22 23  1  0  0  0  0
  8 24  1  0  0  0  0
 23 24  1  0  0  0  0
 11 25  1  0  0  0  0
 21 26  1  0  0  0  0
  2 27  1  0  0  0  0
  2 28  1  0  0  0  0
  2 29  1  0  0  0  0
  4 30  1  0  0  0  0
  4 31  1  0  0  0  0
 13 32  1  0  0  0  0
 15 33  1  0  0  0  0
 16 34  1  0  0  0  0
 18 35  1  0  0  0  0
 22 36  1  0  0  0  0
 22 37  1  0  0  0  0
 23 38  1  0  0  0  0
 23 39  1  0  0  0  0
 24 40  1  0  0  0  0
 24 41  1  0  0  0  0
 25 42  1  0  0  0  0
 25 43  1  0  0  0  0
 25 44  1  0  0  0  0
M  END
$$$$
