8BHO
  PyMOL3.1          3D                             0

 44 47  0  0  0  0  0  0  0  0999 V2000
  190.3080  155.9233  194.5350 N   0  0  0  0  0  0  0  0  0  0  0  0
  195.1984  159.8040  194.0017 C   0  0  0  0  0  0  0  0  0  0  0  0
  193.4901  158.7000  195.2543 O   0  0  0  0  0  0  0  0  0  0  0  0
  194.4741  159.7770  195.2931 C   0  0  0  0  0  0  0  0  0  0  0  0
  190.2258  158.0143  195.3011 N   0  0  0  0  0  0  0  0  0  0  0  0
  192.2088  159.9285  193.8853 O   0  0  0  0  0  0  0  0  0  0  0  0
  192.3918  158.9263  194.5303 C   0  0  0  0  0  0  0  0  0  0  0  0
  192.2180  155.1381  192.1447 N   0  0  0  0  0  0  0  0  0  0  0  0
  190.5119  154.5553  190.8143 O   0  0  0  0  0  0  0  0  0  0  0  0
  191.4188  157.8123  194.6223 C   0  0  0  0  0  0  0  0  0  0  0  0
  188.9504  150.5931  193.6898 O   0  0  0  0  0  0  0  0  0  0  0  0
  191.4931  156.5234  194.1331 C   0  0  0  0  0  0  0  0  0  0  0  0
  189.5958  156.8662  195.2244 C   0  0  0  0  0  0  0  0  0  0  0  0
  189.9570  154.5657  194.2743 C   0  0  0  0  0  0  0  0  0  0  0  0
  189.2672  153.8672  195.2585 C   0  0  0  0  0  0  0  0  0  0  0  0
  188.9320  152.5394  195.0600 C   0  0  0  0  0  0  0  0  0  0  0  0
  189.2838  151.9071  193.8788 C   0  0  0  0  0  0  0  0  0  0  0  0
  189.9690  152.5900  192.8855 C   0  0  0  0  0  0  0  0  0  0  0  0
  190.3102  153.9292  193.0734 C   0  0  0  0  0  0  0  0  0  0  0  0
  191.0186  154.5683  191.9205 C   0  0  0  0  0  0  0  0  0  0  0  0
  192.5929  155.8773  193.3508 C   0  0  0  0  0  0  0  0  0  0  0  0
  193.6716  156.8294  192.8293 C   0  0  0  0  0  0  0  0  0  0  0  0
  194.3865  155.9955  191.7772 C   0  0  0  0  0  0  0  0  0  0  0  0
  193.3066  155.1099  191.1546 C   0  0  0  0  0  0  0  0  0  0  0  0
  187.5834  150.2936  193.4223 C   0  0  0  0  0  0  0  0  0  0  0  0
  193.0337  155.1521  194.0327 H   0  0  0  0  0  0  0  0  0  0  0  0
  194.5378  159.9521  193.1490 H   0  0  0  0  0  0  0  0  0  0  0  0
  195.9259  160.6140  193.9890 H   0  0  0  0  0  0  0  0  0  0  0  0
  195.7465  158.8838  193.8077 H   0  0  0  0  0  0  0  0  0  0  0  0
  193.9755  160.7246  195.4884 H   0  0  0  0  0  0  0  0  0  0  0  0
  195.1442  159.5972  196.1323 H   0  0  0  0  0  0  0  0  0  0  0  0
  188.6152  156.6775  195.6583 H   0  0  0  0  0  0  0  0  0  0  0  0
  188.9834  154.3508  196.1917 H   0  0  0  0  0  0  0  0  0  0  0  0
  188.3929  151.9870  195.8282 H   0  0  0  0  0  0  0  0  0  0  0  0
  190.2453  152.0950  191.9561 H   0  0  0  0  0  0  0  0  0  0  0  0
  194.3467  157.1512  193.6193 H   0  0  0  0  0  0  0  0  0  0  0  0
  193.2555  157.7448  192.4135 H   0  0  0  0  0  0  0  0  0  0  0  0
  194.8900  156.6079  191.0312 H   0  0  0  0  0  0  0  0  0  0  0  0
  195.1818  155.4005  192.2228 H   0  0  0  0  0  0  0  0  0  0  0  0
  193.6383  154.0889  190.9742 H   0  0  0  0  0  0  0  0  0  0  0  0
  192.9718  155.4866  190.1894 H   0  0  0  0  0  0  0  0  0  0  0  0
  187.3018  149.2713  193.6692 H   0  0  0  0  0  0  0  0  0  0  0  0
  187.5007  150.4491  192.3479 H   0  0  0  0  0  0  0  0  0  0  0  0
  186.9135  150.9834  193.9318 H   0  0  0  0  0  0  0  0  0  0  0  0
  2  4  1  0  0  0  0
  3  4  1  0  0  0  0
  3  7  1  0  0  0  0
  6  7  2  0  0  0  0
  5 10  1  0  0  0  0
  7 10  1  0  0  0  0
  1 12  1  0  0  0  0
 10 12  2  0  0  0  0
  1 13  1  0  0  0  0
  5 13  2  0  0  0  0
  1 14  1  0  0  0  0
 14 15  2  0  0  0  0
 15 16  1  0  0  0  0
 11 17  1  0  0  0  0
 16 17  2  0  0  0  0
 17 18  1  0  0  0  0
 14 19  1  0  0  0  0
 18 19  2  0  0  0  0
  8 20  1  0  0  0  0
  9 20  2  0  0  0  0
 19 20  1  0  0  0  0
  8 21  1  0  0  0  0
 12 21  1  0  0  0  0
 21 22  1  0  0  0  0
 22 23  1  0  0  0  0
  8 24  1  0  0  0  0
 23 24  1  0  0  0  0
 11 25  1  0  0  0  0
 21 26  1  0  0  0  0
  2 27  1  0  0  0  0
  2 28  1  0  0  0  0
  2 29  1  0  0  0  0
  4 30  1  0  0  0  0
  4 31  1  0  0  0  0
 13 32  1  0  0  0  0
 15 33  1  0  0  0  0
 16 34  1  0  0  0  0
 18 35  1  0  0  0  0
 22 36  1  0  0  0  0
 22 37  1  0  0  0  0
 23 38  1  0  0  0  0
 23 39  1  0  0  0  0
 24 40  1  0  0  0  0
 24 41  1  0  0  0  0
 25 42  1  0  0  0  0
 25 43  1  0  0  0  0
 25 44  1  0  0  0  0
M  END
$$$$
