8BHO
  PyMOL3.1          3D                             0

 44 47  0  0  0  0  0  0  0  0999 V2000
  142.8445  164.6657  194.5345 N   0  0  0  0  0  0  0  0  0  0  0  0
  141.1681  158.6519  194.0013 C   0  0  0  0  0  0  0  0  0  0  0  0
  141.9015  160.5491  195.2539 O   0  0  0  0  0  0  0  0  0  0  0  0
  141.7383  159.0995  195.2927 C   0  0  0  0  0  0  0  0  0  0  0  0
  144.1398  163.0221  195.3006 N   0  0  0  0  0  0  0  0  0  0  0  0
  143.6602  160.3080  193.8849 O   0  0  0  0  0  0  0  0  0  0  0  0
  142.9231  161.0114  194.5299 C   0  0  0  0  0  0  0  0  0  0  0  0
  140.8376  164.1786  192.1443 N   0  0  0  0  0  0  0  0  0  0  0  0
  141.8754  165.6527  190.8138 O   0  0  0  0  0  0  0  0  0  0  0  0
  143.0558  162.4845  194.6218 C   0  0  0  0  0  0  0  0  0  0  0  0
  140.8105  169.7762  193.6894 O   0  0  0  0  0  0  0  0  0  0  0  0
  142.2382  163.4838  194.1326 C   0  0  0  0  0  0  0  0  0  0  0  0
  143.9748  164.3213  195.2239 C   0  0  0  0  0  0  0  0  0  0  0  0
  142.3306  165.9704  194.2738 C   0  0  0  0  0  0  0  0  0  0  0  0
  142.4782  166.9410  195.2580 C   0  0  0  0  0  0  0  0  0  0  0  0
  141.9692  168.2123  195.0596 C   0  0  0  0  0  0  0  0  0  0  0  0
  141.3129  168.5171  193.8783 C   0  0  0  0  0  0  0  0  0  0  0  0
  141.1598  167.5619  192.8851 C   0  0  0  0  0  0  0  0  0  0  0  0
  141.6708  166.2778  193.0730 C   0  0  0  0  0  0  0  0  0  0  0  0
  141.4732  165.3445  191.9200 C   0  0  0  0  0  0  0  0  0  0  0  0
  140.9686  163.3602  193.3504 C   0  0  0  0  0  0  0  0  0  0  0  0
  140.6554  161.9559  192.8289 C   0  0  0  0  0  0  0  0  0  0  0  0
  139.5868  162.2105  191.7768 C   0  0  0  0  0  0  0  0  0  0  0  0
  139.9401  163.5617  191.1541 C   0  0  0  0  0  0  0  0  0  0  0  0
  141.7405  170.8219  193.4218 C   0  0  0  0  0  0  0  0  0  0  0  0
  140.1859  163.6879  194.0323 H   0  0  0  0  0  0  0  0  0  0  0  0
  141.7896  158.9203  193.1485 H   0  0  0  0  0  0  0  0  0  0  0  0
  141.0555  157.5690  193.9885 H   0  0  0  0  0  0  0  0  0  0  0  0
  140.1838  159.0743  193.8073 H   0  0  0  0  0  0  0  0  0  0  0  0
  142.6986  158.6257  195.4879 H   0  0  0  0  0  0  0  0  0  0  0  0
  141.0905  158.8511  196.1319 H   0  0  0  0  0  0  0  0  0  0  0  0
  144.6573  165.0503  195.6578 H   0  0  0  0  0  0  0  0  0  0  0  0
  142.9921  166.7165  196.1913 H   0  0  0  0  0  0  0  0  0  0  0  0
  142.0807  168.9760  195.8277 H   0  0  0  0  0  0  0  0  0  0  0  0
  140.6453  167.8001  191.9556 H   0  0  0  0  0  0  0  0  0  0  0  0
  140.2982  161.2989  193.6189 H   0  0  0  0  0  0  0  0  0  0  0  0
  141.5299  161.4598  192.4131 H   0  0  0  0  0  0  0  0  0  0  0  0
  139.5393  161.4191  191.0308 H   0  0  0  0  0  0  0  0  0  0  0  0
  138.5937  162.2246  192.2224 H   0  0  0  0  0  0  0  0  0  0  0  0
  139.0718  164.1928  190.9737 H   0  0  0  0  0  0  0  0  0  0  0  0
  140.4325  163.4536  190.1889 H   0  0  0  0  0  0  0  0  0  0  0  0
  141.3676  171.8145  193.6687 H   0  0  0  0  0  0  0  0  0  0  0  0
  141.8988  170.7447  192.3474 H   0  0  0  0  0  0  0  0  0  0  0  0
  142.6879  170.6574  193.9313 H   0  0  0  0  0  0  0  0  0  0  0  0
  2  4  1  0  0  0  0
  3  4  1  0  0  0  0
  3  7  1  0  0  0  0
  6  7  2  0  0  0  0
  5 10  1  0  0  0  0
  7 10  1  0  0  0  0
  1 12  1  0  0  0  0
 10 12  2  0  0  0  0
  1 13  1  0  0  0  0
  5 13  2  0  0  0  0
  1 14  1  0  0  0  0
 14 15  2  0  0  0  0
 15 16  1  0  0  0  0
 11 17  1  0  0  0  0
 16 17  2  0  0  0  0
 17 18  1  0  0  0  0
 14 19  1  0  0  0  0
 18 19  2  0  0  0  0
  8 20  1  0  0  0  0
  9 20  2  0  0  0  0
 19 20  1  0  0  0  0
  8 21  1  0  0  0  0
 12 21  1  0  0  0  0
 21 22  1  0  0  0  0
 22 23  1  0  0  0  0
  8 24  1  0  0  0  0
 23 24  1  0  0  0  0
 11 25  1  0  0  0  0
 21 26  1  0  0  0  0
  2 27  1  0  0  0  0
  2 28  1  0  0  0  0
  2 29  1  0  0  0  0
  4 30  1  0  0  0  0
  4 31  1  0  0  0  0
 13 32  1  0  0  0  0
 15 33  1  0  0  0  0
 16 34  1  0  0  0  0
 18 35  1  0  0  0  0
 22 36  1  0  0  0  0
 22 37  1  0  0  0  0
 23 38  1  0  0  0  0
 23 39  1  0  0  0  0
 24 40  1  0  0  0  0
 24 41  1  0  0  0  0
 25 42  1  0  0  0  0
 25 43  1  0  0  0  0
 25 44  1  0  0  0  0
M  END
$$$$
