8BHO
  PyMOL3.1          3D                             0

 44 47  0  0  0  0  0  0  0  0999 V2000
  163.4135  143.0618  194.5423 N   0  0  0  0  0  0  0  0  0  0  0  0
  168.6173  139.6126  194.0099 C   0  0  0  0  0  0  0  0  0  0  0  0
  167.0386  140.8954  195.2622 O   0  0  0  0  0  0  0  0  0  0  0  0
  168.3673  140.2931  195.3012 C   0  0  0  0  0  0  0  0  0  0  0  0
  165.3763  143.7872  195.3085 N   0  0  0  0  0  0  0  0  0  0  0  0
  167.8105  142.4940  193.8932 O   0  0  0  0  0  0  0  0  0  0  0  0
  166.9140  142.0097  194.5381 C   0  0  0  0  0  0  0  0  0  0  0  0
  163.2583  141.0023  192.1521 N   0  0  0  0  0  0  0  0  0  0  0  0
  162.1763  142.4441  190.8214 O   0  0  0  0  0  0  0  0  0  0  0  0
  165.5536  142.5903  194.6298 C   0  0  0  0  0  0  0  0  0  0  0  0
  157.9250  142.7029  193.6964 O   0  0  0  0  0  0  0  0  0  0  0  0
  164.3510  142.1206  194.1406 C   0  0  0  0  0  0  0  0  0  0  0  0
  164.0896  144.0309  195.2316 C   0  0  0  0  0  0  0  0  0  0  0  0
  162.0140  142.9754  194.2814 C   0  0  0  0  0  0  0  0  0  0  0  0
  161.1361  143.4151  195.2654 C   0  0  0  0  0  0  0  0  0  0  0  0
  159.7699  143.3229  195.0668 C   0  0  0  0  0  0  0  0  0  0  0  0
  159.2776  142.7926  193.8856 C   0  0  0  0  0  0  0  0  0  0  0  0
  160.1392  142.3523  192.8924 C   0  0  0  0  0  0  0  0  0  0  0  0
  161.5182  142.4424  193.0805 C   0  0  0  0  0  0  0  0  0  0  0  0
  162.3453  141.9665  191.9277 C   0  0  0  0  0  0  0  0  0  0  0  0
  164.0771  140.8747  193.3583 C   0  0  0  0  0  0  0  0  0  0  0  0
  165.3164  140.1437  192.8371 C   0  0  0  0  0  0  0  0  0  0  0  0
  164.7448  139.2056  191.7850 C   0  0  0  0  0  0  0  0  0  0  0  0
  163.5685  139.9583  191.1621 C   0  0  0  0  0  0  0  0  0  0  0  0
  157.2171  143.9101  193.4287 C   0  0  0  0  0  0  0  0  0  0  0  0
  163.5239  140.2312  194.0403 H   0  0  0  0  0  0  0  0  0  0  0  0
  168.5538  140.2865  193.1571 H   0  0  0  0  0  0  0  0  0  0  0  0
  169.6127  139.1715  193.9973 H   0  0  0  0  0  0  0  0  0  0  0  0
  167.9120  138.8065  193.8159 H   0  0  0  0  0  0  0  0  0  0  0  0
  169.1141  141.0605  195.4965 H   0  0  0  0  0  0  0  0  0  0  0  0
  168.4037  139.6003  196.1405 H   0  0  0  0  0  0  0  0  0  0  0  0
  163.6066  144.9050  195.6654 H   0  0  0  0  0  0  0  0  0  0  0  0
  161.5080  143.8348  196.1987 H   0  0  0  0  0  0  0  0  0  0  0  0
  159.0777  143.6646  195.8348 H   0  0  0  0  0  0  0  0  0  0  0  0
  159.7541  141.9362  191.9630 H   0  0  0  0  0  0  0  0  0  0  0  0
  165.8312  139.6014  193.6272 H   0  0  0  0  0  0  0  0  0  0  0  0
  166.0581  140.8226  192.4213 H   0  0  0  0  0  0  0  0  0  0  0  0
  165.4831  138.9164  191.0391 H   0  0  0  0  0  0  0  0  0  0  0  0
  164.4252  138.2652  192.2306 H   0  0  0  0  0  0  0  0  0  0  0  0
  162.7004  139.3269  190.9816 H   0  0  0  0  0  0  0  0  0  0  0  0
  163.8233  140.3933  190.1969 H   0  0  0  0  0  0  0  0  0  0  0  0
  156.1579  143.8614  193.6755 H   0  0  0  0  0  0  0  0  0  0  0  0
  157.3395  144.0367  192.3543 H   0  0  0  0  0  0  0  0  0  0  0  0
  157.6656  144.7606  193.9382 H   0  0  0  0  0  0  0  0  0  0  0  0
  2  4  1  0  0  0  0
  3  4  1  0  0  0  0
  3  7  1  0  0  0  0
  6  7  2  0  0  0  0
  5 10  1  0  0  0  0
  7 10  1  0  0  0  0
  1 12  1  0  0  0  0
 10 12  2  0  0  0  0
  1 13  1  0  0  0  0
  5 13  2  0  0  0  0
  1 14  1  0  0  0  0
 14 15  2  0  0  0  0
 15 16  1  0  0  0  0
 11 17  1  0  0  0  0
 16 17  2  0  0  0  0
 17 18  1  0  0  0  0
 14 19  1  0  0  0  0
 18 19  2  0  0  0  0
  8 20  1  0  0  0  0
  9 20  2  0  0  0  0
 19 20  1  0  0  0  0
  8 21  1  0  0  0  0
 12 21  1  0  0  0  0
 21 22  1  0  0  0  0
 22 23  1  0  0  0  0
  8 24  1  0  0  0  0
 23 24  1  0  0  0  0
 11 25  1  0  0  0  0
 21 26  1  0  0  0  0
  2 27  1  0  0  0  0
  2 28  1  0  0  0  0
  2 29  1  0  0  0  0
  4 30  1  0  0  0  0
  4 31  1  0  0  0  0
 13 32  1  0  0  0  0
 15 33  1  0  0  0  0
 16 34  1  0  0  0  0
 18 35  1  0  0  0  0
 22 36  1  0  0  0  0
 22 37  1  0  0  0  0
 23 38  1  0  0  0  0
 23 39  1  0  0  0  0
 24 40  1  0  0  0  0
 24 41  1  0  0  0  0
 25 42  1  0  0  0  0
 25 43  1  0  0  0  0
 25 44  1  0  0  0  0
M  END
$$$$
