7BR3
  PyMOL3.1          3D                             0

 45 48  0  0  0  0  0  0  0  0999 V2000
  -23.8230   23.0930  -12.9290 C   0  0  0  0  0  0  0  0  0  0  0  0
  -22.5300   22.5700  -12.2740 C   0  0  0  0  0  0  0  0  0  0  0  0
  -22.1200   21.1450  -12.7220 C   0  0  0  0  0  0  0  0  0  0  0  0
  -22.9980   20.0320  -12.0810 C   0  0  0  0  0  0  0  0  0  0  0  0
  -25.2260   19.5690  -11.5430 C   0  0  0  0  0  0  0  0  0  0  0  0
  -25.4140   20.4530  -10.2600 C   0  0  0  0  0  0  0  0  0  0  0  0
  -26.5800   19.2390  -12.1440 C   0  0  0  0  0  0  0  0  0  0  0  0
  -27.3310   20.2240  -12.7810 C   0  0  0  0  0  0  0  0  0  0  0  0
  -28.5770   19.8950  -13.3260 C   0  0  0  0  0  0  0  0  0  0  0  0
  -29.0720   18.5960  -13.2400 C   0  0  0  0  0  0  0  0  0  0  0  0
  -28.3170   17.6210  -12.6040 C   0  0  0  0  0  0  0  0  0  0  0  0
  -27.0760   17.9430  -12.0600 C   0  0  0  0  0  0  0  0  0  0  0  0
  -27.5890   20.2090   -9.1000 C   0  0  0  0  0  0  0  0  0  0  0  0
  -28.1260   18.4020   -7.7740 C   0  0  0  0  0  0  0  0  0  0  0  0
  -26.8680   17.8470   -8.0130 C   0  0  0  0  0  0  0  0  0  0  0  0
  -26.0010   18.5450   -8.8350 C   0  0  0  0  0  0  0  0  0  0  0  0
  -29.1320   17.6480   -6.8670 C   0  0  0  0  0  0  0  0  0  0  0  0
  -29.7890   20.1610   -8.0290 C   0  0  0  0  0  0  0  0  0  0  0  0
  -30.6650   20.4870   -9.2340 C   0  0  0  0  0  0  0  0  0  0  0  0
  -24.3840   20.2110  -12.4890 N   0  0  0  0  0  0  0  0  0  0  0  0
  -28.4550   19.5770   -8.3320 N   0  0  0  0  0  0  0  0  0  0  0  0
  -26.3690   19.7140   -9.3600 N   0  0  0  0  0  0  0  0  0  0  0  0
  -23.9660   24.3200  -13.1040 O   0  0  0  0  0  0  0  0  0  0  0  0
  -24.7420   22.3020  -13.2810 O   0  0  0  0  0  0  0  0  0  0  0  0
  -24.7170   17.9790   -9.0800 O   0  0  0  0  0  0  0  0  0  0  0  0
  -27.9060   21.2600   -9.5830 O   0  0  0  0  0  0  0  0  0  0  0  0
  -30.9040   19.4840  -10.1580 C   0  0  0  0  0  0  0  0  0  0  0  0
  -31.6970   19.7150  -11.2720 C   0  0  0  0  0  0  0  0  0  0  0  0
  -32.2640   20.9750  -11.4580 C   0  0  0  0  0  0  0  0  0  0  0  0
  -32.0240   21.9880  -10.5190 C   0  0  0  0  0  0  0  0  0  0  0  0
  -31.2320   21.7510   -9.4060 C   0  0  0  0  0  0  0  0  0  0  0  0
  -31.0120   22.9480   -8.3950 C   0  0  0  0  0  0  0  0  0  0  0  0
  -26.4260   16.4970   -7.4200 C   0  0  0  0  0  0  0  0  0  0  0  0
  -26.9790   15.3100   -7.9610 C   0  0  0  0  0  0  0  0  0  0  0  0
  -26.6110   14.0510   -7.4630 C   0  0  0  0  0  0  0  0  0  0  0  0
  -25.6940   13.9640   -6.4290 C   0  0  0  0  0  0  0  0  0  0  0  0
  -25.1300   15.1580   -5.8870 C   0  0  0  0  0  0  0  0  0  0  0  0
  -25.5010   16.4170   -6.3940 C   0  0  0  0  0  0  0  0  0  0  0  0
  -26.7310   11.6210   -7.5590 C   0  0  0  0  0  0  0  0  0  0  0  0
  -27.2100   12.8750   -8.0530 O   0  0  0  0  0  0  0  0  0  0  0  0
  -29.7440   23.3710   -8.4160 F   0  0  0  0  0  0  0  0  0  0  0  0
  -31.8360   23.9690   -8.8130 F   0  0  0  0  0  0  0  0  0  0  0  0
  -31.3440   22.6090   -7.1150 F   0  0  0  0  0  0  0  0  0  0  0  0
  -30.3440   18.2730   -9.9510 F   0  0  0  0  0  0  0  0  0  0  0  0
  -27.9000   15.4040   -8.9940 F   0  0  0  0  0  0  0  0  0  0  0  0
  1  2  1  0  0  0  0
  2  3  1  0  0  0  0
  3  4  1  0  0  0  0
  5  6  1  0  0  0  0
  5  7  1  0  0  0  0
  7  8  2  0  0  0  0
  8  9  1  0  0  0  0
  9 10  2  0  0  0  0
 10 11  1  0  0  0  0
  7 12  1  0  0  0  0
 11 12  2  0  0  0  0
 14 15  2  0  0  0  0
 15 16  1  0  0  0  0
 14 17  1  0  0  0  0
 18 19  1  0  0  0  0
  4 20  1  0  0  0  0
  5 20  1  0  0  0  0
 13 21  1  0  0  0  0
 14 21  1  0  0  0  0
 18 21  1  0  0  0  0
  6 22  1  0  0  0  0
 13 22  1  0  0  0  0
 16 22  1  0  0  0  0
  1 23  1  0  0  0  0
  1 24  2  0  0  0  0
 16 25  2  0  0  0  0
 13 26  2  0  0  0  0
 19 27  2  0  0  0  0
 27 28  1  0  0  0  0
 28 29  2  0  0  0  0
 29 30  1  0  0  0  0
 19 31  1  0  0  0  0
 30 31  2  0  0  0  0
 31 32  1  0  0  0  0
 15 33  1  0  0  0  0
 33 34  1  0  0  0  0
 34 35  2  0  0  0  0
 35 36  1  0  0  0  0
 36 37  2  0  0  0  0
 33 38  2  0  0  0  0
 37 38  1  0  0  0  0
 35 40  1  0  0  0  0
 39 40  1  0  0  0  0
 32 41  1  0  0  0  0
 32 42  1  0  0  0  0
 32 43  1  0  0  0  0
 27 44  1  0  0  0  0
 34 45  1  0  0  0  0
M  END
$$$$
