8R7Q
  PyMOL3.1          3D                             0

 48 51  0  0  0  0  0  0  0  0999 V2000
  144.0020  131.9630   91.2140 N   0  0  0  0  0  0  0  0  0  0  0  0
  146.0030  130.4060   97.0080 C   0  0  0  0  0  0  0  0  0  0  0  0
  144.6960  130.7800   96.5830 O   0  0  0  0  0  0  0  0  0  0  0  0
  144.4640  131.0830   95.2650 C   0  0  0  0  0  0  0  0  0  0  0  0
  139.1060  130.6480   95.2070 N   0  0  0  0  0  0  0  0  0  0  0  0
  139.5380  133.0760   93.2460 O   0  0  0  0  0  0  0  0  0  0  0  0
  143.2160  131.4310   94.8140 C   0  0  0  0  0  0  0  0  0  0  0  0
  143.0060  131.7390   93.4460 C   0  0  0  0  0  0  0  0  0  0  0  0
  141.7380  132.1060   92.9090 C   0  0  0  0  0  0  0  0  0  0  0  0
  141.6600  132.3810   91.5700 C   0  0  0  0  0  0  0  0  0  0  0  0
  142.8110  132.2960   90.7700 C   0  0  0  0  0  0  0  0  0  0  0  0
  144.1100  131.6820   92.5490 C   0  0  0  0  0  0  0  0  0  0  0  0
  145.3820  131.3200   93.0530 C   0  0  0  0  0  0  0  0  0  0  0  0
  145.5560  131.0300   94.3670 C   0  0  0  0  0  0  0  0  0  0  0  0
  140.4990  132.1930   93.7920 C   0  0  0  0  0  0  0  0  0  0  0  0
  139.9010  130.7810   93.9610 C   0  0  0  0  0  0  0  0  0  0  0  0
  139.0690  130.3050   92.7490 C   0  0  0  0  0  0  0  0  0  0  0  0
  137.9540  129.4060   93.2780 C   0  0  0  0  0  0  0  0  0  0  0  0
  136.9510  130.2790   94.0230 C   0  0  0  0  0  0  0  0  0  0  0  0
  137.7520  131.1880   94.9710 C   0  0  0  0  0  0  0  0  0  0  0  0
  138.9650  129.2110   95.5180 C   0  0  0  0  0  0  0  0  0  0  0  0
  138.5690  128.3950   94.2600 C   0  0  0  0  0  0  0  0  0  0  0  0
  139.7080  127.6220   93.6660 C   0  0  0  0  0  0  0  0  0  0  0  0
  139.7150  127.0250   92.5220 C   0  0  0  0  0  0  0  0  0  0  0  0
  139.9020  133.8580   93.1550 H   0  0  0  0  0  0  0  0  0  0  0  0
  140.7660  132.5270   94.6830 H   0  0  0  0  0  0  0  0  0  0  0  0
  140.6630  130.1690   94.0500 H   0  0  0  0  0  0  0  0  0  0  0  0
  137.2810  131.2630   95.8320 H   0  0  0  0  0  0  0  0  0  0  0  0
  137.8260  132.0880   94.5820 H   0  0  0  0  0  0  0  0  0  0  0  0
  136.3260  129.7140   94.5360 H   0  0  0  0  0  0  0  0  0  0  0  0
  136.4340  130.8230   93.3830 H   0  0  0  0  0  0  0  0  0  0  0  0
  138.2830  129.0990   96.2110 H   0  0  0  0  0  0  0  0  0  0  0  0
  139.8140  128.8760   95.8740 H   0  0  0  0  0  0  0  0  0  0  0  0
  137.8650  127.7550   94.5200 H   0  0  0  0  0  0  0  0  0  0  0  0
  140.5010  127.5680   94.1860 H   0  0  0  0  0  0  0  0  0  0  0  0
  138.9470  127.0540   91.9670 H   0  0  0  0  0  0  0  0  0  0  0  0
  140.4880  126.5570   92.2360 H   0  0  0  0  0  0  0  0  0  0  0  0
  137.5160  128.9320   92.5360 H   0  0  0  0  0  0  0  0  0  0  0  0
  139.6350  129.8110   92.1210 H   0  0  0  0  0  0  0  0  0  0  0  0
  138.6870  131.0740   92.2770 H   0  0  0  0  0  0  0  0  0  0  0  0
  140.8360  132.6270   91.1850 H   0  0  0  0  0  0  0  0  0  0  0  0
  142.7260  132.4930   89.8470 H   0  0  0  0  0  0  0  0  0  0  0  0
  142.4890  131.4640   95.4200 H   0  0  0  0  0  0  0  0  0  0  0  0
  146.1210  131.2800   92.4630 H   0  0  0  0  0  0  0  0  0  0  0  0
  146.4160  130.7910   94.6770 H   0  0  0  0  0  0  0  0  0  0  0  0
  145.9900  130.2260   97.9620 H   0  0  0  0  0  0  0  0  0  0  0  0
  146.6230  131.1280   96.8250 H   0  0  0  0  0  0  0  0  0  0  0  0
  146.2820  129.6060   96.5340 H   0  0  0  0  0  0  0  0  0  0  0  0
  2  3  1  0  0  0  0
  3  4  1  0  0  0  0
  4  7  2  0  0  0  0
  7  8  1  0  0  0  0
  8  9  2  0  0  0  0
  9 10  1  0  0  0  0
  1 11  1  0  0  0  0
 10 11  2  0  0  0  0
  1 12  2  0  0  0  0
  8 12  1  0  0  0  0
 12 13  1  0  0  0  0
  4 14  1  0  0  0  0
 13 14  2  0  0  0  0
  6 15  1  0  0  0  0
  9 15  1  0  0  0  0
  5 16  1  0  0  0  0
 15 16  1  0  0  0  0
 16 17  1  0  0  0  0
 17 18  1  0  0  0  0
 18 19  1  0  0  0  0
  5 20  1  0  0  0  0
 19 20  1  0  0  0  0
  5 21  1  0  0  0  0
 18 22  1  0  0  0  0
 21 22  1  0  0  0  0
 22 23  1  0  0  0  0
 23 24  2  0  0  0  0
  6 25  1  0  0  0  0
 15 26  1  0  0  0  0
 16 27  1  0  0  0  0
 20 28  1  0  0  0  0
 20 29  1  0  0  0  0
 19 30  1  0  0  0  0
 19 31  1  0  0  0  0
 21 32  1  0  0  0  0
 21 33  1  0  0  0  0
 22 34  1  0  0  0  0
 23 35  1  0  0  0  0
 24 36  1  0  0  0  0
 24 37  1  0  0  0  0
 18 38  1  0  0  0  0
 17 39  1  0  0  0  0
 17 40  1  0  0  0  0
 10 41  1  0  0  0  0
 11 42  1  0  0  0  0
  7 43  1  0  0  0  0
 13 44  1  0  0  0  0
 14 45  1  0  0  0  0
  2 46  1  0  0  0  0
  2 47  1  0  0  0  0
  2 48  1  0  0  0  0
M  END
$$$$
