8R7Q
  PyMOL3.1          3D                             0

 48 51  0  0  0  0  0  0  0  0999 V2000
  138.1240  121.5400  172.8470 N   0  0  0  0  0  0  0  0  0  0  0  0
  140.3350  120.6840  166.9850 C   0  0  0  0  0  0  0  0  0  0  0  0
  139.3790  121.6320  167.4510 O   0  0  0  0  0  0  0  0  0  0  0  0
  139.0290  121.6580  168.7770 C   0  0  0  0  0  0  0  0  0  0  0  0
  136.8260  126.4900  168.9310 N   0  0  0  0  0  0  0  0  0  0  0  0
  134.9510  124.9680  170.9810 O   0  0  0  0  0  0  0  0  0  0  0  0
  138.1270  122.5670  169.2680 C   0  0  0  0  0  0  0  0  0  0  0  0
  137.7850  122.5680  170.6450 C   0  0  0  0  0  0  0  0  0  0  0  0
  136.8590  123.4840  171.2240 C   0  0  0  0  0  0  0  0  0  0  0  0
  136.6100  123.3880  172.5660 C   0  0  0  0  0  0  0  0  0  0  0  0
  137.2630  122.4060  173.3300 C   0  0  0  0  0  0  0  0  0  0  0  0
  138.3930  121.6130  171.5080 C   0  0  0  0  0  0  0  0  0  0  0  0
  139.3180  120.6910  170.9630 C   0  0  0  0  0  0  0  0  0  0  0  0
  139.6280  120.7100  169.6420 C   0  0  0  0  0  0  0  0  0  0  0  0
  136.1600  124.5430  170.3790 C   0  0  0  0  0  0  0  0  0  0  0  0
  137.1130  125.7410  170.1800 C   0  0  0  0  0  0  0  0  0  0  0  0
  137.1560  126.7110  171.3820 C   0  0  0  0  0  0  0  0  0  0  0  0
  137.3970  128.1160  170.8350 C   0  0  0  0  0  0  0  0  0  0  0  0
  136.1350  128.5680  170.1090 C   0  0  0  0  0  0  0  0  0  0  0  0
  135.7060  127.4200  169.1790 C   0  0  0  0  0  0  0  0  0  0  0  0
  138.0130  127.3010  168.5900 C   0  0  0  0  0  0  0  0  0  0  0  0
  138.5600  128.0550  169.8300 C   0  0  0  0  0  0  0  0  0  0  0  0
  139.7980  127.4380  170.4080 C   0  0  0  0  0  0  0  0  0  0  0  0
  140.3250  127.7050  171.5550 C   0  0  0  0  0  0  0  0  0  0  0  0
  134.4430  124.2760  171.1030 H   0  0  0  0  0  0  0  0  0  0  0  0
  135.9550  124.1580  169.4930 H   0  0  0  0  0  0  0  0  0  0  0  0
  138.0120  125.3630  170.0780 H   0  0  0  0  0  0  0  0  0  0  0  0
  134.9600  126.9260  169.5860 H   0  0  0  0  0  0  0  0  0  0  0  0
  135.3980  127.7890  168.3200 H   0  0  0  0  0  0  0  0  0  0  0  0
  135.4220  128.7650  170.7600 H   0  0  0  0  0  0  0  0  0  0  0  0
  136.3190  129.3830  169.5850 H   0  0  0  0  0  0  0  0  0  0  0  0
  137.7710  127.9460  167.8950 H   0  0  0  0  0  0  0  0  0  0  0  0
  138.7080  126.7140  168.2290 H   0  0  0  0  0  0  0  0  0  0  0  0
  138.7760  128.9780  169.5570 H   0  0  0  0  0  0  0  0  0  0  0  0
  140.2350  126.7860  169.8730 H   0  0  0  0  0  0  0  0  0  0  0  0
  141.1170  127.2620  171.8280 H   0  0  0  0  0  0  0  0  0  0  0  0
  139.9180  128.3410  172.1280 H   0  0  0  0  0  0  0  0  0  0  0  0
  137.6150  128.7360  171.5670 H   0  0  0  0  0  0  0  0  0  0  0  0
  136.3090  126.6820  171.8730 H   0  0  0  0  0  0  0  0  0  0  0  0
  137.8760  126.4580  171.9970 H   0  0  0  0  0  0  0  0  0  0  0  0
  136.0020  123.9780  172.9790 H   0  0  0  0  0  0  0  0  0  0  0  0
  137.0690  122.3640  174.2570 H   0  0  0  0  0  0  0  0  0  0  0  0
  137.7310  123.1990  168.6860 H   0  0  0  0  0  0  0  0  0  0  0  0
  139.7250  120.0520  171.5290 H   0  0  0  0  0  0  0  0  0  0  0  0
  140.2480  120.0830  169.3040 H   0  0  0  0  0  0  0  0  0  0  0  0
  140.4690  120.8060  166.0310 H   0  0  0  0  0  0  0  0  0  0  0  0
  141.1770  120.8160  167.4480 H   0  0  0  0  0  0  0  0  0  0  0  0
  140.0080  119.7860  167.1520 H   0  0  0  0  0  0  0  0  0  0  0  0
  2  3  1  0  0  0  0
  3  4  1  0  0  0  0
  4  7  2  0  0  0  0
  7  8  1  0  0  0  0
  8  9  2  0  0  0  0
  9 10  1  0  0  0  0
  1 11  1  0  0  0  0
 10 11  2  0  0  0  0
  1 12  2  0  0  0  0
  8 12  1  0  0  0  0
 12 13  1  0  0  0  0
  4 14  1  0  0  0  0
 13 14  2  0  0  0  0
  6 15  1  0  0  0  0
  9 15  1  0  0  0  0
  5 16  1  0  0  0  0
 15 16  1  0  0  0  0
 16 17  1  0  0  0  0
 17 18  1  0  0  0  0
 18 19  1  0  0  0  0
  5 20  1  0  0  0  0
 19 20  1  0  0  0  0
  5 21  1  0  0  0  0
 18 22  1  0  0  0  0
 21 22  1  0  0  0  0
 22 23  1  0  0  0  0
 23 24  2  0  0  0  0
  6 25  1  0  0  0  0
 15 26  1  0  0  0  0
 16 27  1  0  0  0  0
 20 28  1  0  0  0  0
 20 29  1  0  0  0  0
 19 30  1  0  0  0  0
 19 31  1  0  0  0  0
 21 32  1  0  0  0  0
 21 33  1  0  0  0  0
 22 34  1  0  0  0  0
 23 35  1  0  0  0  0
 24 36  1  0  0  0  0
 24 37  1  0  0  0  0
 18 38  1  0  0  0  0
 17 39  1  0  0  0  0
 17 40  1  0  0  0  0
 10 41  1  0  0  0  0
 11 42  1  0  0  0  0
  7 43  1  0  0  0  0
 13 44  1  0  0  0  0
 14 45  1  0  0  0  0
  2 46  1  0  0  0  0
  2 47  1  0  0  0  0
  2 48  1  0  0  0  0
M  END
$$$$
