8R7Q
  PyMOL3.1          3D                             0

 48 51  0  0  0  0  0  0  0  0999 V2000
  138.1580  142.5080   91.1700 N   0  0  0  0  0  0  0  0  0  0  0  0
  140.2950  143.2720   97.0700 C   0  0  0  0  0  0  0  0  0  0  0  0
  139.3270  142.3470   96.5830 O   0  0  0  0  0  0  0  0  0  0  0  0
  138.9950  142.3370   95.2520 C   0  0  0  0  0  0  0  0  0  0  0  0
  136.8430  137.6800   95.1220 N   0  0  0  0  0  0  0  0  0  0  0  0
  134.8790  139.1450   92.9310 O   0  0  0  0  0  0  0  0  0  0  0  0
  138.0790  141.4540   94.7390 C   0  0  0  0  0  0  0  0  0  0  0  0
  137.7590  141.4710   93.3570 C   0  0  0  0  0  0  0  0  0  0  0  0
  136.8200  140.5830   92.7560 C   0  0  0  0  0  0  0  0  0  0  0  0
  136.5950  140.6970   91.4110 C   0  0  0  0  0  0  0  0  0  0  0  0
  137.2840  141.6680   90.6660 C   0  0  0  0  0  0  0  0  0  0  0  0
  138.4030  142.4180   92.5120 C   0  0  0  0  0  0  0  0  0  0  0  0
  139.3410  143.3130   93.0780 C   0  0  0  0  0  0  0  0  0  0  0  0
  139.6300  143.2760   94.4030 C   0  0  0  0  0  0  0  0  0  0  0  0
  136.0790  139.5320   93.5750 C   0  0  0  0  0  0  0  0  0  0  0  0
  137.0110  138.3190   93.7900 C   0  0  0  0  0  0  0  0  0  0  0  0
  136.9260  137.2480   92.6790 C   0  0  0  0  0  0  0  0  0  0  0  0
  137.2690  135.9040   93.3160 C   0  0  0  0  0  0  0  0  0  0  0  0
  136.1000  135.4890   94.2020 C   0  0  0  0  0  0  0  0  0  0  0  0
  135.7400  136.6980   95.0840 C   0  0  0  0  0  0  0  0  0  0  0  0
  138.0810  136.9280   95.4100 C   0  0  0  0  0  0  0  0  0  0  0  0
  138.5240  136.0780   94.1900 C   0  0  0  0  0  0  0  0  0  0  0  0
  139.6820  136.6680   93.4430 C   0  0  0  0  0  0  0  0  0  0  0  0
  140.1060  136.3160   92.2770 C   0  0  0  0  0  0  0  0  0  0  0  0
  134.4330  138.6010   93.4360 H   0  0  0  0  0  0  0  0  0  0  0  0
  135.8570  139.9150   94.4590 H   0  0  0  0  0  0  0  0  0  0  0  0
  137.9240  138.6770   93.7700 H   0  0  0  0  0  0  0  0  0  0  0  0
  135.5530  136.3900   96.0000 H   0  0  0  0  0  0  0  0  0  0  0  0
  134.9320  137.1290   94.7370 H   0  0  0  0  0  0  0  0  0  0  0  0
  136.3570  134.7200   94.7630 H   0  0  0  0  0  0  0  0  0  0  0  0
  135.3290  135.2300   93.6450 H   0  0  0  0  0  0  0  0  0  0  0  0
  138.7910  137.5590   95.6470 H   0  0  0  0  0  0  0  0  0  0  0  0
  137.9280  136.3430   96.1800 H   0  0  0  0  0  0  0  0  0  0  0  0
  138.7930  135.1870   94.5190 H   0  0  0  0  0  0  0  0  0  0  0  0
  140.1500  137.3730   93.8760 H   0  0  0  0  0  0  0  0  0  0  0  0
  140.8540  136.7520   91.8920 H   0  0  0  0  0  0  0  0  0  0  0  0
  139.6650  135.6250   91.8010 H   0  0  0  0  0  0  0  0  0  0  0  0
  137.4340  135.2280   92.6210 H   0  0  0  0  0  0  0  0  0  0  0  0
  137.5580  137.4540   91.9590 H   0  0  0  0  0  0  0  0  0  0  0  0
  136.0240  137.2210   92.2990 H   0  0  0  0  0  0  0  0  0  0  0  0
  135.9800  140.1250   90.9830 H   0  0  0  0  0  0  0  0  0  0  0  0
  137.1060  141.7220   89.7360 H   0  0  0  0  0  0  0  0  0  0  0  0
  137.6590  140.8270   95.3110 H   0  0  0  0  0  0  0  0  0  0  0  0
  139.7720  143.9460   92.5240 H   0  0  0  0  0  0  0  0  0  0  0  0
  140.2600  143.8860   94.7560 H   0  0  0  0  0  0  0  0  0  0  0  0
  140.4120  143.1410   98.0250 H   0  0  0  0  0  0  0  0  0  0  0  0
  141.1410  143.1250   96.6180 H   0  0  0  0  0  0  0  0  0  0  0  0
  139.9890  144.1780   96.9050 H   0  0  0  0  0  0  0  0  0  0  0  0
  2  3  1  0  0  0  0
  3  4  1  0  0  0  0
  4  7  2  0  0  0  0
  7  8  1  0  0  0  0
  8  9  2  0  0  0  0
  9 10  1  0  0  0  0
  1 11  1  0  0  0  0
 10 11  2  0  0  0  0
  1 12  2  0  0  0  0
  8 12  1  0  0  0  0
 12 13  1  0  0  0  0
  4 14  1  0  0  0  0
 13 14  2  0  0  0  0
  6 15  1  0  0  0  0
  9 15  1  0  0  0  0
  5 16  1  0  0  0  0
 15 16  1  0  0  0  0
 16 17  1  0  0  0  0
 17 18  1  0  0  0  0
 18 19  1  0  0  0  0
  5 20  1  0  0  0  0
 19 20  1  0  0  0  0
  5 21  1  0  0  0  0
 18 22  1  0  0  0  0
 21 22  1  0  0  0  0
 22 23  1  0  0  0  0
 23 24  2  0  0  0  0
  6 25  1  0  0  0  0
 15 26  1  0  0  0  0
 16 27  1  0  0  0  0
 20 28  1  0  0  0  0
 20 29  1  0  0  0  0
 19 30  1  0  0  0  0
 19 31  1  0  0  0  0
 21 32  1  0  0  0  0
 21 33  1  0  0  0  0
 22 34  1  0  0  0  0
 23 35  1  0  0  0  0
 24 36  1  0  0  0  0
 24 37  1  0  0  0  0
 18 38  1  0  0  0  0
 17 39  1  0  0  0  0
 17 40  1  0  0  0  0
 10 41  1  0  0  0  0
 11 42  1  0  0  0  0
  7 43  1  0  0  0  0
 13 44  1  0  0  0  0
 14 45  1  0  0  0  0
  2 46  1  0  0  0  0
  2 47  1  0  0  0  0
  2 48  1  0  0  0  0
M  END
$$$$
