8R7Q
  PyMOL3.1          3D                             0

 48 51  0  0  0  0  0  0  0  0999 V2000
  126.0850  142.3880   91.3570 N   0  0  0  0  0  0  0  0  0  0  0  0
  126.3700  145.0110   97.1050 C   0  0  0  0  0  0  0  0  0  0  0  0
  126.7420  143.6970   96.7000 O   0  0  0  0  0  0  0  0  0  0  0  0
  126.6030  143.3180   95.3900 C   0  0  0  0  0  0  0  0  0  0  0  0
  129.7810  139.0930   95.4600 N   0  0  0  0  0  0  0  0  0  0  0  0
  127.5380  138.0520   93.4530 O   0  0  0  0  0  0  0  0  0  0  0  0
  126.9690  142.0680   94.9590 C   0  0  0  0  0  0  0  0  0  0  0  0
  126.8130  141.7030   93.5970 C   0  0  0  0  0  0  0  0  0  0  0  0
  127.1750  140.4250   93.0810 C   0  0  0  0  0  0  0  0  0  0  0  0
  126.9770  140.1890   91.7470 C   0  0  0  0  0  0  0  0  0  0  0  0
  126.4330  141.1950   90.9320 C   0  0  0  0  0  0  0  0  0  0  0  0
  126.2710  142.6530   92.6860 C   0  0  0  0  0  0  0  0  0  0  0  0
  125.9040  143.9310   93.1690 C   0  0  0  0  0  0  0  0  0  0  0  0
  126.0630  144.2560   94.4770 C   0  0  0  0  0  0  0  0  0  0  0  0
  127.7630  139.3450   93.9820 C   0  0  0  0  0  0  0  0  0  0  0  0
  129.2760  139.5990   94.1600 C   0  0  0  0  0  0  0  0  0  0  0  0
  130.1430  139.0520   93.0040 C   0  0  0  0  0  0  0  0  0  0  0  0
  131.4720  138.5910   93.5960 C   0  0  0  0  0  0  0  0  0  0  0  0
  131.2170  137.3420   94.4330 C   0  0  0  0  0  0  0  0  0  0  0  0
  130.0170  137.6410   95.3490 C   0  0  0  0  0  0  0  0  0  0  0  0
  131.0790  139.7390   95.7440 C   0  0  0  0  0  0  0  0  0  0  0  0
  132.0160  139.7040   94.5080 C   0  0  0  0  0  0  0  0  0  0  0  0
  132.1340  141.0240   93.8090 C   0  0  0  0  0  0  0  0  0  0  0  0
  132.7100  141.2400   92.6750 C   0  0  0  0  0  0  0  0  0  0  0  0
  126.6840  137.9400   93.3480 H   0  0  0  0  0  0  0  0  0  0  0  0
  127.3320  139.4030   94.8690 H   0  0  0  0  0  0  0  0  0  0  0  0
  129.3910  140.5730   94.1750 H   0  0  0  0  0  0  0  0  0  0  0  0
  130.1880  137.2730   96.2460 H   0  0  0  0  0  0  0  0  0  0  0  0
  129.2110  137.2080   94.9890 H   0  0  0  0  0  0  0  0  0  0  0  0
  131.0160  136.5760   93.8450 H   0  0  0  0  0  0  0  0  0  0  0  0
  132.0140  137.1270   94.9720 H   0  0  0  0  0  0  0  0  0  0  0  0
  130.9220  140.6680   96.0110 H   0  0  0  0  0  0  0  0  0  0  0  0
  131.5080  139.2790   96.4940 H   0  0  0  0  0  0  0  0  0  0  0  0
  132.9150  139.4380   94.8130 H   0  0  0  0  0  0  0  0  0  0  0  0
  131.7460  141.7730   94.2460 H   0  0  0  0  0  0  0  0  0  0  0  0
  132.7400  142.1180   92.3180 H   0  0  0  0  0  0  0  0  0  0  0  0
  133.0970  140.5210   92.1950 H   0  0  0  0  0  0  0  0  0  0  0  0
  132.1180  138.3990   92.8790 H   0  0  0  0  0  0  0  0  0  0  0  0
  130.2940  139.7510   92.3340 H   0  0  0  0  0  0  0  0  0  0  0  0
  129.6910  138.3010   92.5660 H   0  0  0  0  0  0  0  0  0  0  0  0
  127.2050  139.3530   91.3750 H   0  0  0  0  0  0  0  0  0  0  0  0
  126.3080  141.0020   90.0120 H   0  0  0  0  0  0  0  0  0  0  0  0
  127.3300  141.4460   95.5730 H   0  0  0  0  0  0  0  0  0  0  0  0
  125.5420  144.5680   92.5700 H   0  0  0  0  0  0  0  0  0  0  0  0
  125.8100  145.1160   94.7740 H   0  0  0  0  0  0  0  0  0  0  0  0
  125.4290  145.1510   96.9240 H   0  0  0  0  0  0  0  0  0  0  0  0
  126.5330  145.1110   98.0570 H   0  0  0  0  0  0  0  0  0  0  0  0
  126.8980  145.6630   96.6170 H   0  0  0  0  0  0  0  0  0  0  0  0
  2  3  1  0  0  0  0
  3  4  1  0  0  0  0
  4  7  2  0  0  0  0
  7  8  1  0  0  0  0
  8  9  2  0  0  0  0
  9 10  1  0  0  0  0
  1 11  1  0  0  0  0
 10 11  2  0  0  0  0
  1 12  2  0  0  0  0
  8 12  1  0  0  0  0
 12 13  1  0  0  0  0
  4 14  1  0  0  0  0
 13 14  2  0  0  0  0
  6 15  1  0  0  0  0
  9 15  1  0  0  0  0
  5 16  1  0  0  0  0
 15 16  1  0  0  0  0
 16 17  1  0  0  0  0
 17 18  1  0  0  0  0
 18 19  1  0  0  0  0
  5 20  1  0  0  0  0
 19 20  1  0  0  0  0
  5 21  1  0  0  0  0
 18 22  1  0  0  0  0
 21 22  1  0  0  0  0
 22 23  1  0  0  0  0
 23 24  2  0  0  0  0
  6 25  1  0  0  0  0
 15 26  1  0  0  0  0
 16 27  1  0  0  0  0
 20 28  1  0  0  0  0
 20 29  1  0  0  0  0
 19 30  1  0  0  0  0
 19 31  1  0  0  0  0
 21 32  1  0  0  0  0
 21 33  1  0  0  0  0
 22 34  1  0  0  0  0
 23 35  1  0  0  0  0
 24 36  1  0  0  0  0
 24 37  1  0  0  0  0
 18 38  1  0  0  0  0
 17 39  1  0  0  0  0
 17 40  1  0  0  0  0
 10 41  1  0  0  0  0
 11 42  1  0  0  0  0
  7 43  1  0  0  0  0
 13 44  1  0  0  0  0
 14 45  1  0  0  0  0
  2 46  1  0  0  0  0
  2 47  1  0  0  0  0
  2 48  1  0  0  0  0
M  END
$$$$
