8R7Q
  PyMOL3.1          3D                             0

 48 51  0  0  0  0  0  0  0  0999 V2000
  137.9930  142.5000  172.7580 N   0  0  0  0  0  0  0  0  0  0  0  0
  137.6490  144.9210  166.9250 C   0  0  0  0  0  0  0  0  0  0  0  0
  137.2740  143.6240  167.3800 O   0  0  0  0  0  0  0  0  0  0  0  0
  137.4280  143.2880  168.7010 C   0  0  0  0  0  0  0  0  0  0  0  0
  134.2200  138.9880  168.8770 N   0  0  0  0  0  0  0  0  0  0  0  0
  136.5270  138.0910  170.8320 O   0  0  0  0  0  0  0  0  0  0  0  0
  137.0680  142.0540  169.1790 C   0  0  0  0  0  0  0  0  0  0  0  0
  137.2410  141.7360  170.5510 C   0  0  0  0  0  0  0  0  0  0  0  0
  136.8880  140.4760  171.1160 C   0  0  0  0  0  0  0  0  0  0  0  0
  137.1010  140.2880  172.4540 C   0  0  0  0  0  0  0  0  0  0  0  0
  137.6520  141.3220  173.2280 C   0  0  0  0  0  0  0  0  0  0  0  0
  137.7920  142.7180  171.4220 C   0  0  0  0  0  0  0  0  0  0  0  0
  138.1510  143.9790  170.8910 C   0  0  0  0  0  0  0  0  0  0  0  0
  137.9760  144.2580  169.5750 C   0  0  0  0  0  0  0  0  0  0  0  0
  136.2890  139.3650  170.2620 C   0  0  0  0  0  0  0  0  0  0  0  0
  134.7730  139.6110  170.1060 C   0  0  0  0  0  0  0  0  0  0  0  0
  133.9420  139.1830  171.3360 C   0  0  0  0  0  0  0  0  0  0  0  0
  132.5790  138.7150  170.8330 C   0  0  0  0  0  0  0  0  0  0  0  0
  132.7690  137.3880  170.1080 C   0  0  0  0  0  0  0  0  0  0  0  0
  133.9550  137.5610  169.1420 C   0  0  0  0  0  0  0  0  0  0  0  0
  132.9270  139.6340  168.5710 C   0  0  0  0  0  0  0  0  0  0  0  0
  132.0400  139.7570  169.8380 C   0  0  0  0  0  0  0  0  0  0  0  0
  132.0020  141.1430  170.4080 C   0  0  0  0  0  0  0  0  0  0  0  0
  131.5770  141.4810  171.5790 C   0  0  0  0  0  0  0  0  0  0  0  0
  137.3830  137.9850  170.9260 H   0  0  0  0  0  0  0  0  0  0  0  0
  136.7030  139.3930  169.3650 H   0  0  0  0  0  0  0  0  0  0  0  0
  134.6630  140.5800  170.0020 H   0  0  0  0  0  0  0  0  0  0  0  0
  133.7560  137.1070  168.2920 H   0  0  0  0  0  0  0  0  0  0  0  0
  134.7590  137.1480  169.5290 H   0  0  0  0  0  0  0  0  0  0  0  0
  131.9520  137.1540  169.6080 H   0  0  0  0  0  0  0  0  0  0  0  0
  132.9590  136.6710  170.7570 H   0  0  0  0  0  0  0  0  0  0  0  0
  133.0940  140.5240  168.1990 H   0  0  0  0  0  0  0  0  0  0  0  0
  132.4580  139.1060  167.8930 H   0  0  0  0  0  0  0  0  0  0  0  0
  131.1200  139.5000  169.5940 H   0  0  0  0  0  0  0  0  0  0  0  0
  132.3230  141.8400  169.8490 H   0  0  0  0  0  0  0  0  0  0  0  0
  131.5880  142.3910  171.8430 H   0  0  0  0  0  0  0  0  0  0  0  0
  131.2600  140.8190  172.1780 H   0  0  0  0  0  0  0  0  0  0  0  0
  131.9530  138.6110  171.5850 H   0  0  0  0  0  0  0  0  0  0  0  0
  134.3920  138.4570  171.8150 H   0  0  0  0  0  0  0  0  0  0  0  0
  133.8350  139.9370  171.9530 H   0  0  0  0  0  0  0  0  0  0  0  0
  136.8780  139.4650  172.8580 H   0  0  0  0  0  0  0  0  0  0  0  0
  137.7880  141.1610  174.1520 H   0  0  0  0  0  0  0  0  0  0  0  0
  136.7010  141.4100  168.5910 H   0  0  0  0  0  0  0  0  0  0  0  0
  138.5190  144.6360  171.4630 H   0  0  0  0  0  0  0  0  0  0  0  0
  138.2250  145.1080  169.2460 H   0  0  0  0  0  0  0  0  0  0  0  0
  137.4720  144.9900  165.9730 H   0  0  0  0  0  0  0  0  0  0  0  0
  137.1320  145.5930  167.3990 H   0  0  0  0  0  0  0  0  0  0  0  0
  138.5940  145.0610  167.0880 H   0  0  0  0  0  0  0  0  0  0  0  0
  2  3  1  0  0  0  0
  3  4  1  0  0  0  0
  4  7  2  0  0  0  0
  7  8  1  0  0  0  0
  8  9  2  0  0  0  0
  9 10  1  0  0  0  0
  1 11  1  0  0  0  0
 10 11  2  0  0  0  0
  1 12  2  0  0  0  0
  8 12  1  0  0  0  0
 12 13  1  0  0  0  0
  4 14  1  0  0  0  0
 13 14  2  0  0  0  0
  6 15  1  0  0  0  0
  9 15  1  0  0  0  0
  5 16  1  0  0  0  0
 15 16  1  0  0  0  0
 16 17  1  0  0  0  0
 17 18  1  0  0  0  0
 18 19  1  0  0  0  0
  5 20  1  0  0  0  0
 19 20  1  0  0  0  0
  5 21  1  0  0  0  0
 18 22  1  0  0  0  0
 21 22  1  0  0  0  0
 22 23  1  0  0  0  0
 23 24  2  0  0  0  0
  6 25  1  0  0  0  0
 15 26  1  0  0  0  0
 16 27  1  0  0  0  0
 20 28  1  0  0  0  0
 20 29  1  0  0  0  0
 19 30  1  0  0  0  0
 19 31  1  0  0  0  0
 21 32  1  0  0  0  0
 21 33  1  0  0  0  0
 22 34  1  0  0  0  0
 23 35  1  0  0  0  0
 24 36  1  0  0  0  0
 24 37  1  0  0  0  0
 18 38  1  0  0  0  0
 17 39  1  0  0  0  0
 17 40  1  0  0  0  0
 10 41  1  0  0  0  0
 11 42  1  0  0  0  0
  7 43  1  0  0  0  0
 13 44  1  0  0  0  0
 14 45  1  0  0  0  0
  2 46  1  0  0  0  0
  2 47  1  0  0  0  0
  2 48  1  0  0  0  0
M  END
$$$$
