8R7Q
  PyMOL3.1          3D                             0

 48 51  0  0  0  0  0  0  0  0999 V2000
  126.0540  121.5990  172.7920 N   0  0  0  0  0  0  0  0  0  0  0  0
  126.3390  119.1630  166.9640 C   0  0  0  0  0  0  0  0  0  0  0  0
  126.7250  120.4590  167.4110 O   0  0  0  0  0  0  0  0  0  0  0  0
  126.5830  120.7990  168.7330 C   0  0  0  0  0  0  0  0  0  0  0  0
  129.8090  125.1040  168.8770 N   0  0  0  0  0  0  0  0  0  0  0  0
  127.5280  125.9970  170.8490 O   0  0  0  0  0  0  0  0  0  0  0  0
  126.9520  122.0330  169.2050 C   0  0  0  0  0  0  0  0  0  0  0  0
  126.7920  122.3550  170.5770 C   0  0  0  0  0  0  0  0  0  0  0  0
  127.1550  123.6150  171.1360 C   0  0  0  0  0  0  0  0  0  0  0  0
  126.9530  123.8070  172.4760 C   0  0  0  0  0  0  0  0  0  0  0  0
  126.4030  122.7760  173.2560 C   0  0  0  0  0  0  0  0  0  0  0  0
  126.2430  121.3780  171.4550 C   0  0  0  0  0  0  0  0  0  0  0  0
  125.8750  120.1170  170.9300 C   0  0  0  0  0  0  0  0  0  0  0  0
  126.0380  119.8340  169.6130 C   0  0  0  0  0  0  0  0  0  0  0  0
  127.7510  124.7220  170.2760 C   0  0  0  0  0  0  0  0  0  0  0  0
  129.2630  124.4670  170.1020 C   0  0  0  0  0  0  0  0  0  0  0  0
  130.1090  124.8700  171.3300 C   0  0  0  0  0  0  0  0  0  0  0  0
  131.4700  125.3400  170.8210 C   0  0  0  0  0  0  0  0  0  0  0  0
  131.2790  126.6790  170.1190 C   0  0  0  0  0  0  0  0  0  0  0  0
  130.0860  126.5260  169.1590 C   0  0  0  0  0  0  0  0  0  0  0  0
  131.0950  124.4550  168.5500 C   0  0  0  0  0  0  0  0  0  0  0  0
  131.9930  124.3090  169.8060 C   0  0  0  0  0  0  0  0  0  0  0  0
  132.0320  122.9150  170.3550 C   0  0  0  0  0  0  0  0  0  0  0  0
  132.4740  122.5580  171.5140 C   0  0  0  0  0  0  0  0  0  0  0  0
  126.6740  126.1100  170.9530 H   0  0  0  0  0  0  0  0  0  0  0  0
  127.3260  124.6970  169.3840 H   0  0  0  0  0  0  0  0  0  0  0  0
  129.3660  123.4990  169.9830 H   0  0  0  0  0  0  0  0  0  0  0  0
  129.2880  126.9390  169.5570 H   0  0  0  0  0  0  0  0  0  0  0  0
  130.2820  126.9900  168.3130 H   0  0  0  0  0  0  0  0  0  0  0  0
  131.0980  127.3860  170.7810 H   0  0  0  0  0  0  0  0  0  0  0  0
  132.0940  126.9170  169.6170 H   0  0  0  0  0  0  0  0  0  0  0  0
  130.9190  123.5710  168.1670 H   0  0  0  0  0  0  0  0  0  0  0  0
  131.5600  124.9890  167.8740 H   0  0  0  0  0  0  0  0  0  0  0  0
  132.9120  124.5660  169.5560 H   0  0  0  0  0  0  0  0  0  0  0  0
  131.6960  122.2290  169.7910 H   0  0  0  0  0  0  0  0  0  0  0  0
  132.4610  121.6440  171.7650 H   0  0  0  0  0  0  0  0  0  0  0  0
  132.8040  123.2100  172.1170 H   0  0  0  0  0  0  0  0  0  0  0  0
  132.1030  125.4280  171.5690 H   0  0  0  0  0  0  0  0  0  0  0  0
  129.6670  125.5910  171.8250 H   0  0  0  0  0  0  0  0  0  0  0  0
  130.2180  124.1060  171.9340 H   0  0  0  0  0  0  0  0  0  0  0  0
  127.1820  124.6290  172.8770 H   0  0  0  0  0  0  0  0  0  0  0  0
  126.2750  122.9400  174.1810 H   0  0  0  0  0  0  0  0  0  0  0  0
  127.3170  122.6740  168.6120 H   0  0  0  0  0  0  0  0  0  0  0  0
  125.5090  119.4620  171.5070 H   0  0  0  0  0  0  0  0  0  0  0  0
  125.7830  118.9840  169.2880 H   0  0  0  0  0  0  0  0  0  0  0  0
  126.5080  119.0890  166.0100 H   0  0  0  0  0  0  0  0  0  0  0  0
  125.3940  119.0290  167.1340 H   0  0  0  0  0  0  0  0  0  0  0  0
  126.8540  118.4890  167.4350 H   0  0  0  0  0  0  0  0  0  0  0  0
  2  3  1  0  0  0  0
  3  4  1  0  0  0  0
  4  7  2  0  0  0  0
  7  8  1  0  0  0  0
  8  9  2  0  0  0  0
  9 10  1  0  0  0  0
  1 11  1  0  0  0  0
 10 11  2  0  0  0  0
  1 12  2  0  0  0  0
  8 12  1  0  0  0  0
 12 13  1  0  0  0  0
  4 14  1  0  0  0  0
 13 14  2  0  0  0  0
  6 15  1  0  0  0  0
  9 15  1  0  0  0  0
  5 16  1  0  0  0  0
 15 16  1  0  0  0  0
 16 17  1  0  0  0  0
 17 18  1  0  0  0  0
 18 19  1  0  0  0  0
  5 20  1  0  0  0  0
 19 20  1  0  0  0  0
  5 21  1  0  0  0  0
 18 22  1  0  0  0  0
 21 22  1  0  0  0  0
 22 23  1  0  0  0  0
 23 24  2  0  0  0  0
  6 25  1  0  0  0  0
 15 26  1  0  0  0  0
 16 27  1  0  0  0  0
 20 28  1  0  0  0  0
 20 29  1  0  0  0  0
 19 30  1  0  0  0  0
 19 31  1  0  0  0  0
 21 32  1  0  0  0  0
 21 33  1  0  0  0  0
 22 34  1  0  0  0  0
 23 35  1  0  0  0  0
 24 36  1  0  0  0  0
 24 37  1  0  0  0  0
 18 38  1  0  0  0  0
 17 39  1  0  0  0  0
 17 40  1  0  0  0  0
 10 41  1  0  0  0  0
 11 42  1  0  0  0  0
  7 43  1  0  0  0  0
 13 44  1  0  0  0  0
 14 45  1  0  0  0  0
  2 46  1  0  0  0  0
  2 47  1  0  0  0  0
  2 48  1  0  0  0  0
M  END
$$$$
