8R7Q
  PyMOL3.1          3D                             0

 48 51  0  0  0  0  0  0  0  0999 V2000
  144.0640  132.0560  172.8090 N   0  0  0  0  0  0  0  0  0  0  0  0
  146.0050  133.5810  166.9870 C   0  0  0  0  0  0  0  0  0  0  0  0
  144.6990  133.2290  167.4310 O   0  0  0  0  0  0  0  0  0  0  0  0
  144.4800  132.9290  168.7520 C   0  0  0  0  0  0  0  0  0  0  0  0
  139.1350  133.4470  168.8840 N   0  0  0  0  0  0  0  0  0  0  0  0
  139.5530  131.0140  170.8480 O   0  0  0  0  0  0  0  0  0  0  0  0
  143.2340  132.6020  169.2210 C   0  0  0  0  0  0  0  0  0  0  0  0
  143.0390  132.2960  170.5930 C   0  0  0  0  0  0  0  0  0  0  0  0
  141.7730  131.9500  171.1490 C   0  0  0  0  0  0  0  0  0  0  0  0
  141.7110  131.6750  172.4880 C   0  0  0  0  0  0  0  0  0  0  0  0
  142.8760  131.7410  173.2710 C   0  0  0  0  0  0  0  0  0  0  0  0
  144.1570  132.3350  171.4730 C   0  0  0  0  0  0  0  0  0  0  0  0
  145.4270  132.6760  170.9500 C   0  0  0  0  0  0  0  0  0  0  0  0
  145.5860  132.9640  169.6340 C   0  0  0  0  0  0  0  0  0  0  0  0
  140.5190  131.8820  170.2850 C   0  0  0  0  0  0  0  0  0  0  0  0
  139.9380  133.3030  170.1230 C   0  0  0  0  0  0  0  0  0  0  0  0
  139.1220  133.7860  171.3440 C   0  0  0  0  0  0  0  0  0  0  0  0
  138.0050  134.6890  170.8260 C   0  0  0  0  0  0  0  0  0  0  0  0
  136.9920  133.8220  170.0880 C   0  0  0  0  0  0  0  0  0  0  0  0
  137.7800  132.9150  169.1260 C   0  0  0  0  0  0  0  0  0  0  0  0
  139.0020  134.8870  168.5790 C   0  0  0  0  0  0  0  0  0  0  0  0
  138.6140  135.7010  169.8400 C   0  0  0  0  0  0  0  0  0  0  0  0
  139.7560  136.4740  170.4270 C   0  0  0  0  0  0  0  0  0  0  0  0
  139.7710  137.0660  171.5740 C   0  0  0  0  0  0  0  0  0  0  0  0
  139.9100  130.2300  170.9470 H   0  0  0  0  0  0  0  0  0  0  0  0
  140.7670  131.5430  169.3910 H   0  0  0  0  0  0  0  0  0  0  0  0
  140.7070  133.9050  170.0300 H   0  0  0  0  0  0  0  0  0  0  0  0
  137.8510  132.0120  169.5080 H   0  0  0  0  0  0  0  0  0  0  0  0
  137.3010  132.8500  168.2690 H   0  0  0  0  0  0  0  0  0  0  0  0
  136.4820  133.2760  170.7320 H   0  0  0  0  0  0  0  0  0  0  0  0
  136.3630  134.3890  169.5850 H   0  0  0  0  0  0  0  0  0  0  0  0
  139.8520  135.2180  168.2220 H   0  0  0  0  0  0  0  0  0  0  0  0
  138.3190  135.0050  167.8880 H   0  0  0  0  0  0  0  0  0  0  0  0
  137.9080  136.3420  169.5850 H   0  0  0  0  0  0  0  0  0  0  0  0
  140.5440  136.5320  169.9010 H   0  0  0  0  0  0  0  0  0  0  0  0
  139.0090  137.0320  172.1360 H   0  0  0  0  0  0  0  0  0  0  0  0
  140.5460  137.5360  171.8550 H   0  0  0  0  0  0  0  0  0  0  0  0
  137.5750  135.1640  171.5730 H   0  0  0  0  0  0  0  0  0  0  0  0
  138.7420  133.0200  171.8220 H   0  0  0  0  0  0  0  0  0  0  0  0
  139.6980  134.2790  171.9640 H   0  0  0  0  0  0  0  0  0  0  0  0
  140.8890  131.4420  172.8860 H   0  0  0  0  0  0  0  0  0  0  0  0
  142.8010  131.5460  174.1950 H   0  0  0  0  0  0  0  0  0  0  0  0
  142.4980  132.5810  168.6260 H   0  0  0  0  0  0  0  0  0  0  0  0
  146.1750  132.7040  171.5290 H   0  0  0  0  0  0  0  0  0  0  0  0
  146.4450  133.1890  169.3110 H   0  0  0  0  0  0  0  0  0  0  0  0
  146.3070  134.3740  167.4600 H   0  0  0  0  0  0  0  0  0  0  0  0
  145.9820  133.7650  166.0340 H   0  0  0  0  0  0  0  0  0  0  0  0
  146.6150  132.8470  167.1580 H   0  0  0  0  0  0  0  0  0  0  0  0
  2  3  1  0  0  0  0
  3  4  1  0  0  0  0
  4  7  2  0  0  0  0
  7  8  1  0  0  0  0
  8  9  2  0  0  0  0
  9 10  1  0  0  0  0
  1 11  1  0  0  0  0
 10 11  2  0  0  0  0
  1 12  2  0  0  0  0
  8 12  1  0  0  0  0
 12 13  1  0  0  0  0
  4 14  1  0  0  0  0
 13 14  2  0  0  0  0
  6 15  1  0  0  0  0
  9 15  1  0  0  0  0
  5 16  1  0  0  0  0
 15 16  1  0  0  0  0
 16 17  1  0  0  0  0
 17 18  1  0  0  0  0
 18 19  1  0  0  0  0
  5 20  1  0  0  0  0
 19 20  1  0  0  0  0
  5 21  1  0  0  0  0
 18 22  1  0  0  0  0
 21 22  1  0  0  0  0
 22 23  1  0  0  0  0
 23 24  2  0  0  0  0
  6 25  1  0  0  0  0
 15 26  1  0  0  0  0
 16 27  1  0  0  0  0
 20 28  1  0  0  0  0
 20 29  1  0  0  0  0
 19 30  1  0  0  0  0
 19 31  1  0  0  0  0
 21 32  1  0  0  0  0
 21 33  1  0  0  0  0
 22 34  1  0  0  0  0
 23 35  1  0  0  0  0
 24 36  1  0  0  0  0
 24 37  1  0  0  0  0
 18 38  1  0  0  0  0
 17 39  1  0  0  0  0
 17 40  1  0  0  0  0
 10 41  1  0  0  0  0
 11 42  1  0  0  0  0
  7 43  1  0  0  0  0
 13 44  1  0  0  0  0
 14 45  1  0  0  0  0
  2 46  1  0  0  0  0
  2 47  1  0  0  0  0
  2 48  1  0  0  0  0
M  END
$$$$
