8R7Q
  PyMOL3.1          3D                             0

 48 51  0  0  0  0  0  0  0  0999 V2000
  137.9430  121.5130   91.3720 N   0  0  0  0  0  0  0  0  0  0  0  0
  137.6250  118.9990   97.1680 C   0  0  0  0  0  0  0  0  0  0  0  0
  137.2740  120.3110   96.7390 O   0  0  0  0  0  0  0  0  0  0  0  0
  137.4170  120.6650   95.4220 C   0  0  0  0  0  0  0  0  0  0  0  0
  134.2970  124.9590   95.4010 N   0  0  0  0  0  0  0  0  0  0  0  0
  136.5740  125.9110   93.3950 O   0  0  0  0  0  0  0  0  0  0  0  0
  137.0720  121.9120   94.9690 C   0  0  0  0  0  0  0  0  0  0  0  0
  137.2310  122.2510   93.6010 C   0  0  0  0  0  0  0  0  0  0  0  0
  136.8920  123.5260   93.0630 C   0  0  0  0  0  0  0  0  0  0  0  0
  137.0900  123.7340   91.7250 C   0  0  0  0  0  0  0  0  0  0  0  0
  137.6150  122.7040   90.9270 C   0  0  0  0  0  0  0  0  0  0  0  0
  137.7550  121.2760   92.7060 C   0  0  0  0  0  0  0  0  0  0  0  0
  138.1010  120.0000   93.2110 C   0  0  0  0  0  0  0  0  0  0  0  0
  137.9380  119.7010   94.5250 C   0  0  0  0  0  0  0  0  0  0  0  0
  136.3230  124.6310   93.9450 C   0  0  0  0  0  0  0  0  0  0  0  0
  134.8060  124.4060   94.1210 C   0  0  0  0  0  0  0  0  0  0  0  0
  133.9550  124.9290   92.9420 C   0  0  0  0  0  0  0  0  0  0  0  0
  132.6160  125.3940   93.5090 C   0  0  0  0  0  0  0  0  0  0  0  0
  132.8540  126.6660   94.3120 C   0  0  0  0  0  0  0  0  0  0  0  0
  134.0580  126.4060   95.2340 C   0  0  0  0  0  0  0  0  0  0  0  0
  132.9970  124.3240   95.6970 C   0  0  0  0  0  0  0  0  0  0  0  0
  132.0780  124.3010   94.4480 C   0  0  0  0  0  0  0  0  0  0  0  0
  131.9950  122.9550   93.7920 C   0  0  0  0  0  0  0  0  0  0  0  0
  131.5390  122.7020   92.6110 C   0  0  0  0  0  0  0  0  0  0  0  0
  137.4300  126.0030   93.2920 H   0  0  0  0  0  0  0  0  0  0  0  0
  136.7500  124.5790   94.8350 H   0  0  0  0  0  0  0  0  0  0  0  0
  134.6760  123.4350   94.1660 H   0  0  0  0  0  0  0  0  0  0  0  0
  134.8630  126.8250   94.8520 H   0  0  0  0  0  0  0  0  0  0  0  0
  133.8920  126.8090   96.1160 H   0  0  0  0  0  0  0  0  0  0  0  0
  133.0440  127.4200   93.7050 H   0  0  0  0  0  0  0  0  0  0  0  0
  132.0550  126.8840   94.8470 H   0  0  0  0  0  0  0  0  0  0  0  0
  132.5560  124.8170   96.4190 H   0  0  0  0  0  0  0  0  0  0  0  0
  133.1520  123.4090   96.0090 H   0  0  0  0  0  0  0  0  0  0  0  0
  131.1690  124.5600   94.7310 H   0  0  0  0  0  0  0  0  0  0  0  0
  132.3090  122.2170   94.3000 H   0  0  0  0  0  0  0  0  0  0  0  0
  131.5240  121.8100   92.2900 H   0  0  0  0  0  0  0  0  0  0  0  0
  131.2280  123.4070   92.0610 H   0  0  0  0  0  0  0  0  0  0  0  0
  131.9750  125.5590   92.7810 H   0  0  0  0  0  0  0  0  0  0  0  0
  134.4100  125.6750   92.4990 H   0  0  0  0  0  0  0  0  0  0  0  0
  133.8170  124.2190   92.2820 H   0  0  0  0  0  0  0  0  0  0  0  0
  136.8760  124.5670   91.3380 H   0  0  0  0  0  0  0  0  0  0  0  0
  137.7410  122.8790   90.0040 H   0  0  0  0  0  0  0  0  0  0  0  0
  136.7230  122.5520   95.5730 H   0  0  0  0  0  0  0  0  0  0  0  0
  138.4500  119.3470   92.6240 H   0  0  0  0  0  0  0  0  0  0  0  0
  138.1770  118.8420   94.8370 H   0  0  0  0  0  0  0  0  0  0  0  0
  137.4600  118.9180   98.1210 H   0  0  0  0  0  0  0  0  0  0  0  0
  138.5640  118.8400   96.9890 H   0  0  0  0  0  0  0  0  0  0  0  0
  137.0860  118.3460   96.6910 H   0  0  0  0  0  0  0  0  0  0  0  0
  2  3  1  0  0  0  0
  3  4  1  0  0  0  0
  4  7  2  0  0  0  0
  7  8  1  0  0  0  0
  8  9  2  0  0  0  0
  9 10  1  0  0  0  0
  1 11  1  0  0  0  0
 10 11  2  0  0  0  0
  1 12  2  0  0  0  0
  8 12  1  0  0  0  0
 12 13  1  0  0  0  0
  4 14  1  0  0  0  0
 13 14  2  0  0  0  0
  6 15  1  0  0  0  0
  9 15  1  0  0  0  0
  5 16  1  0  0  0  0
 15 16  1  0  0  0  0
 16 17  1  0  0  0  0
 17 18  1  0  0  0  0
 18 19  1  0  0  0  0
  5 20  1  0  0  0  0
 19 20  1  0  0  0  0
  5 21  1  0  0  0  0
 18 22  1  0  0  0  0
 21 22  1  0  0  0  0
 22 23  1  0  0  0  0
 23 24  2  0  0  0  0
  6 25  1  0  0  0  0
 15 26  1  0  0  0  0
 16 27  1  0  0  0  0
 20 28  1  0  0  0  0
 20 29  1  0  0  0  0
 19 30  1  0  0  0  0
 19 31  1  0  0  0  0
 21 32  1  0  0  0  0
 21 33  1  0  0  0  0
 22 34  1  0  0  0  0
 23 35  1  0  0  0  0
 24 36  1  0  0  0  0
 24 37  1  0  0  0  0
 18 38  1  0  0  0  0
 17 39  1  0  0  0  0
 17 40  1  0  0  0  0
 10 41  1  0  0  0  0
 11 42  1  0  0  0  0
  7 43  1  0  0  0  0
 13 44  1  0  0  0  0
 14 45  1  0  0  0  0
  2 46  1  0  0  0  0
  2 47  1  0  0  0  0
  2 48  1  0  0  0  0
M  END
$$$$
