8T69
  PyMOL3.1          3D                             0

 23 25  0  0  0  0  0  0  0  0999 V2000
  128.6180  129.2610  107.2210 C   0  0  0  0  0  0  0  0  0  0  0  0
  128.4890  127.8830  107.8420 C   0  0  0  0  0  0  0  0  0  0  0  0
  129.8330  127.1730  107.8540 C   0  0  0  0  0  0  0  0  0  0  0  0
  127.4160  127.0580  107.1350 C   0  0  0  0  0  0  0  0  0  0  0  0
  127.8980  125.8470  106.3200 C   0  0  0  0  0  0  0  0  0  0  0  0
  127.8890  126.1340  104.8240 C   0  0  0  0  0  0  0  0  0  0  0  0
  128.1990  124.9480  103.9540 N   0  0  0  0  0  0  0  0  0  0  0  0
  129.6160  124.4780  104.1250 C   0  0  0  0  0  0  0  0  0  0  0  0
  129.9390  123.4620  103.0520 C   0  0  0  0  0  0  0  0  0  0  0  0
  128.8380  122.4630  102.7940 C   0  0  0  0  0  0  0  0  0  0  0  0
  129.1040  121.3500  102.0010 C   0  0  0  0  0  0  0  0  0  0  0  0
  128.1130  120.4250  101.7350 C   0  0  0  0  0  0  0  0  0  0  0  0
  126.8260  120.6080  102.2680 C   0  0  0  0  0  0  0  0  0  0  0  0
  126.5600  121.7120  103.0560 C   0  0  0  0  0  0  0  0  0  0  0  0
  127.5590  122.6440  103.3260 C   0  0  0  0  0  0  0  0  0  0  0  0
  127.2270  123.8220  104.2110 C   0  0  0  0  0  0  0  0  0  0  0  0
  127.2700  123.4610  105.7100 C   0  0  0  0  0  0  0  0  0  0  0  0
  126.9830  124.6750  106.5500 C   0  0  0  0  0  0  0  0  0  0  0  0
  126.0780  124.6980  107.3550 O   0  0  0  0  0  0  0  0  0  0  0  0
  125.9130  119.6450  101.9500 O   0  0  0  0  0  0  0  0  0  0  0  0
  124.5950  119.7890  102.4720 C   0  0  0  0  0  0  0  0  0  0  0  0
  128.2840  119.3040  100.9760 O   0  0  0  0  0  0  0  0  0  0  0  0
  129.5830  119.0620  100.4430 C   0  0  0  0  0  0  0  0  0  0  0  0
  1  2  1  0  0  0  0
  2  3  1  0  0  0  0
  2  4  1  0  0  0  0
  4  5  1  0  0  0  0
  5  6  1  0  0  0  0
  6  7  1  0  0  0  0
  7  8  1  0  0  0  0
  8  9  1  0  0  0  0
  9 10  1  0  0  0  0
 10 11  1  0  0  0  0
 11 12  2  0  0  0  0
 12 13  1  0  0  0  0
 13 14  2  0  0  0  0
 10 15  2  0  0  0  0
 14 15  1  0  0  0  0
  7 16  1  0  0  0  0
 15 16  1  0  0  0  0
 16 17  1  0  0  0  0
  5 18  1  0  0  0  0
 17 18  1  0  0  0  0
 18 19  2  0  0  0  0
 13 20  1  0  0  0  0
 20 21  1  0  0  0  0
 12 22  1  0  0  0  0
 22 23  1  0  0  0  0
M  END
$$$$
