7EJX
  PyMOL3.1          3D                             0

 34 37  0  0  0  0  0  0  0  0999 V2000
  144.1630  147.1380  156.8860 O   0  0  0  0  0  0  0  0  0  0  0  0
  143.7510  146.1070  157.2930 C   0  0  0  0  0  0  0  0  0  0  0  0
  143.6910  144.8770  156.3580 C   0  0  0  0  0  0  0  0  0  0  0  0
  143.0470  145.0050  154.9820 C   0  0  0  0  0  0  0  0  0  0  0  0
  142.1850  143.9910  154.2150 C   0  0  0  0  0  0  0  0  0  0  0  0
  141.3810  144.4130  153.2610 N   0  0  0  0  0  0  0  0  0  0  0  0
  140.6200  143.5750  152.5780 C   0  0  0  0  0  0  0  0  0  0  0  0
  140.6640  142.2170  152.8660 C   0  0  0  0  0  0  0  0  0  0  0  0
  141.5030  141.7410  153.8670 C   0  0  0  0  0  0  0  0  0  0  0  0
  142.2830  142.6510  154.5640 C   0  0  0  0  0  0  0  0  0  0  0  0
  144.5710  144.9820  155.1230 C   0  0  0  0  0  0  0  0  0  0  0  0
  143.2970  145.9810  158.6990 N   0  0  0  0  0  0  0  0  0  0  0  0
  143.3850  147.0970  159.6830 C   0  0  0  0  0  0  0  0  0  0  0  0
  142.1250  147.9630  159.9410 C   0  0  0  0  0  0  0  0  0  0  0  0
  141.6590  148.5750  158.7120 N   0  0  0  0  0  0  0  0  0  0  0  0
  140.9920  147.1350  160.5490 C   0  0  0  0  0  0  0  0  0  0  0  0
  141.1850  146.9900  162.0560 C   0  0  0  0  0  0  0  0  0  0  0  0
  139.6520  147.8210  160.2880 C   0  0  0  0  0  0  0  0  0  0  0  0
  138.5080  146.7880  160.3700 C   0  0  0  0  0  0  0  0  0  0  0  0
  142.8180  144.6930  159.2190 C   0  0  0  0  0  0  0  0  0  0  0  0
  141.6120  144.0950  158.8400 C   0  0  0  0  0  0  0  0  0  0  0  0
  141.2450  142.8750  159.4130 C   0  0  0  0  0  0  0  0  0  0  0  0
  142.0760  142.2810  160.3580 C   0  0  0  0  0  0  0  0  0  0  0  0
  141.6860  140.9480  161.0060 C   0  0  0  0  0  0  0  0  0  0  0  0
  140.9880  139.9630  160.3060 C   0  0  0  0  0  0  0  0  0  0  0  0
  140.6500  138.7660  160.9330 C   0  0  0  0  0  0  0  0  0  0  0  0
  141.0050  138.5610  162.2650 C   0  0  0  0  0  0  0  0  0  0  0  0
  140.6490  137.2540  162.9950 C   0  0  0  0  0  0  0  0  0  0  0  0
  139.9030  137.5080  164.3220 C   0  0  0  0  0  0  0  0  0  0  0  0
  139.4320  136.2070  164.9990 C   0  0  0  0  0  0  0  0  0  0  0  0
  141.6900  139.5520  162.9530 C   0  0  0  0  0  0  0  0  0  0  0  0
  142.0400  140.7380  162.3300 C   0  0  0  0  0  0  0  0  0  0  0  0
  143.2660  142.9000  160.7440 C   0  0  0  0  0  0  0  0  0  0  0  0
  143.6310  144.1150  160.1670 C   0  0  0  0  0  0  0  0  0  0  0  0
  1  2  2  0  0  0  0
  2  3  1  0  0  0  0
  2 12  1  0  0  0  0
  3  4  1  0  0  0  0
  4  5  1  0  0  0  0
  5  6  4  0  0  0  0
  5 10  4  0  0  0  0
  6  7  4  0  0  0  0
  7  8  4  0  0  0  0
  8  9  4  0  0  0  0
  9 10  4  0  0  0  0
  3 11  1  0  0  0  0
  4 11  1  0  0  0  0
 12 20  1  0  0  0  0
 12 13  1  0  0  0  0
 13 14  1  0  0  0  0
 14 15  1  0  0  0  0
 14 16  1  0  0  0  0
 16 17  1  0  0  0  0
 16 18  1  0  0  0  0
 18 19  1  0  0  0  0
 20 21  4  0  0  0  0
 21 22  4  0  0  0  0
 22 23  4  0  0  0  0
 23 24  1  0  0  0  0
 23 33  4  0  0  0  0
 24 25  4  0  0  0  0
 24 32  4  0  0  0  0
 25 26  4  0  0  0  0
 26 27  4  0  0  0  0
 27 28  1  0  0  0  0
 27 31  4  0  0  0  0
 28 29  1  0  0  0  0
 29 30  1  0  0  0  0
 31 32  4  0  0  0  0
 33 34  4  0  0  0  0
 20 34  4  0  0  0  0
M  END
$$$$
