8YN9
  PyMOL3.1          3D                             0

  8  8  0  0  0  0  0  0  0  0999 V2000
   97.9430  125.5210  118.9750 N   0  0  0  0  0  0  0  0  0  0  0  0
   97.4770  124.6550  120.0620 C   0  0  0  0  0  0  0  0  0  0  0  0
   96.4640  125.4100  120.9130 C   0  0  0  0  0  0  0  0  0  0  0  0
   95.0730  125.0910  120.4390 C   0  0  0  0  0  0  0  0  0  0  0  0
   94.2450  125.9470  119.8220 C   0  0  0  0  0  0  0  0  0  0  0  0
   94.4440  123.9190  120.5590 N   0  0  0  0  0  0  0  0  0  0  0  0
   93.2550  124.0140  120.0350 C   0  0  0  0  0  0  0  0  0  0  0  0
   93.0920  125.2640  119.5660 N   0  0  0  0  0  0  0  0  0  0  0  0
  1  2  1  0  0  0  0
  2  3  1  0  0  0  0
  3  4  1  0  0  0  0
  4  5  2  0  0  0  0
  4  6  1  0  0  0  0
  6  7  2  0  0  0  0
  5  8  1  0  0  0  0
  7  8  1  0  0  0  0
M  END
$$$$
