7CMV
  PyMOL3.1          3D                             0

 18 20  0  0  0  0  0  0  0  0999 V2000
   92.6000  121.4690  116.9330 N   0  0  0  0  0  0  0  0  0  0  0  0
   96.2970  121.9390  117.3890 C   0  0  0  0  0  0  0  0  0  0  0  0
   95.8950  120.4560  115.7600 O   0  0  0  0  0  0  0  0  0  0  0  0
   96.6840  121.2220  116.3130 C   0  0  0  0  0  0  0  0  0  0  0  0
   94.4300  122.8960  118.4920 O   0  0  0  0  0  0  0  0  0  0  0  0
   97.4290  122.8870  117.9880 C   0  0  0  0  0  0  0  0  0  0  0  0
   99.5350  123.8160  118.0830 O   0  0  0  0  0  0  0  0  0  0  0  0
   98.2170  121.5000  115.8910 C   0  0  0  0  0  0  0  0  0  0  0  0
   98.6120  122.9530  117.4810 C   0  0  0  0  0  0  0  0  0  0  0  0
   98.9680  122.3220  116.5250 C   0  0  0  0  0  0  0  0  0  0  0  0
   94.8710  121.8060  117.9420 C   0  0  0  0  0  0  0  0  0  0  0  0
   94.5900  120.1670  116.0580 C   0  0  0  0  0  0  0  0  0  0  0  0
   93.9840  121.4740  116.6540 C   0  0  0  0  0  0  0  0  0  0  0  0
   93.2480  123.2410  118.7540 C   0  0  0  0  0  0  0  0  0  0  0  0
   92.1740  122.3570  118.1030 C   0  0  0  0  0  0  0  0  0  0  0  0
   91.7980  121.9150  115.8040 C   0  0  0  0  0  0  0  0  0  0  0  0
   92.3830  121.4480  114.4430 C   0  0  0  0  0  0  0  0  0  0  0  0
   91.4630  121.9210  113.3150 C   0  0  0  0  0  0  0  0  0  0  0  0
  2  4  4  0  0  0  0
  2  6  4  0  0  0  0
  2 11  1  0  0  0  0
  3  4  1  0  0  0  0
  4  8  4  0  0  0  0
  6  9  4  0  0  0  0
  8 10  4  0  0  0  0
  7  9  1  0  0  0  0
  9 10  4  0  0  0  0
  5 11  1  0  0  0  0
 11 13  1  0  0  0  0
  3 12  1  0  0  0  0
 12 13  1  0  0  0  0
  1 13  1  0  0  0  0
  5 14  1  0  0  0  0
 14 15  1  0  0  0  0
  1 15  1  0  0  0  0
  1 16  1  0  0  0  0
 16 17  1  0  0  0  0
 17 18  1  0  0  0  0
M  END
$$$$
