8BHB
  PyMOL3.1          3D                             0

190200  0  0  0  0  0  0  0  0999 V2000
  196.4550  169.9820  198.3110 N   0  0  0  0  0  0  0  0  0  0  0  0
  194.9080  173.1120  200.7890 C   0  0  0  0  0  0  0  0  0  0  0  0
  194.1140  174.0010  200.9670 O   0  0  0  0  0  0  0  0  0  0  0  0
  196.6450  174.7060  200.5250 C   0  0  0  0  0  0  0  0  0  0  0  0
  195.8430  164.1410  199.4000 N   0  0  0  0  0  0  0  0  0  0  0  0
  196.2060  173.3160  200.5590 O   0  0  0  0  0  0  0  0  0  0  0  0
  196.2520  175.2840  199.2280 C   0  0  0  0  0  0  0  0  0  0  0  0
  194.8200  163.4660  199.0530 N   0  0  0  0  0  0  0  0  0  0  0  0
  195.8440  168.4480  196.7950 O   0  0  0  0  0  0  0  0  0  0  0  0
  194.5550  171.6750  200.8010 C   0  0  0  0  0  0  0  0  0  0  0  0
  194.0350  162.7070  198.7260 N   0  0  0  0  0  0  0  0  0  0  0  0
  195.2900  170.6140  200.3330 C   0  0  0  0  0  0  0  0  0  0  0  0
  194.5160  169.5000  200.5640 N   0  0  0  0  0  0  0  0  0  0  0  0
  196.6120  170.4440  199.6910 C   0  0  0  0  0  0  0  0  0  0  0  0
  193.3450  171.2430  201.3190 N   0  0  0  0  0  0  0  0  0  0  0  0
  196.8680  170.9140  197.2740 C   0  0  0  0  0  0  0  0  0  0  0  0
  195.9580  168.7800  197.9600 C   0  0  0  0  0  0  0  0  0  0  0  0
  195.5430  167.8360  199.0440 C   0  0  0  0  0  0  0  0  0  0  0  0
  195.8590  166.5030  198.7890 C   0  0  0  0  0  0  0  0  0  0  0  0
  195.5180  165.5020  199.6890 C   0  0  0  0  0  0  0  0  0  0  0  0
  194.8570  165.8370  200.8630 C   0  0  0  0  0  0  0  0  0  0  0  0
  194.5370  167.1550  201.1380 C   0  0  0  0  0  0  0  0  0  0  0  0
  194.8730  168.1590  200.2370 C   0  0  0  0  0  0  0  0  0  0  0  0
  193.3630  169.9410  201.1580 C   0  0  0  0  0  0  0  0  0  0  0  0
  196.3790  166.2460  197.8680 H   0  0  0  0  0  0  0  0  0  0  0  0
  196.2660  175.3110  201.3450 H   0  0  0  0  0  0  0  0  0  0  0  0
  197.7250  174.6590  200.6490 H   0  0  0  0  0  0  0  0  0  0  0  0
  197.2190  169.7340  200.2500 H   0  0  0  0  0  0  0  0  0  0  0  0
  197.1690  171.3760  199.7330 H   0  0  0  0  0  0  0  0  0  0  0  0
  197.9030  170.7630  196.9740 H   0  0  0  0  0  0  0  0  0  0  0  0
  196.7730  171.9530  197.5860 H   0  0  0  0  0  0  0  0  0  0  0  0
  196.2470  170.8160  196.3860 H   0  0  0  0  0  0  0  0  0  0  0  0
  195.1730  175.2510  199.0920 H   0  0  0  0  0  0  0  0  0  0  0  0
  196.5530  176.3250  199.1300 H   0  0  0  0  0  0  0  0  0  0  0  0
  196.6890  174.7590  198.3810 H   0  0  0  0  0  0  0  0  0  0  0  0
  194.5790  165.0720  201.5850 H   0  0  0  0  0  0  0  0  0  0  0  0
  194.0210  167.3910  202.0670 H   0  0  0  0  0  0  0  0  0  0  0  0
  192.5500  169.2840  201.4620 H   0  0  0  0  0  0  0  0  0  0  0  0
  178.2820  144.0530  198.3160 N   0  0  0  0  0  0  0  0  0  0  0  0
  180.7810  146.4920  200.7930 C   0  0  0  0  0  0  0  0  0  0  0  0
  181.3800  147.5230  200.9710 O   0  0  0  0  0  0  0  0  0  0  0  0
  182.8330  145.3330  200.5300 C   0  0  0  0  0  0  0  0  0  0  0  0
  172.5380  142.8300  199.4040 N   0  0  0  0  0  0  0  0  0  0  0  0
  181.3750  145.3210  200.5640 O   0  0  0  0  0  0  0  0  0  0  0  0
  183.2610  145.8860  199.2330 C   0  0  0  0  0  0  0  0  0  0  0  0
  171.5790  143.5940  199.0570 N   0  0  0  0  0  0  0  0  0  0  0  0
  176.6350  144.1600  196.7990 O   0  0  0  0  0  0  0  0  0  0  0  0
  179.3040  146.3840  200.8050 C   0  0  0  0  0  0  0  0  0  0  0  0
  170.6150  144.1060  198.7290 N   0  0  0  0  0  0  0  0  0  0  0  0
  178.5230  145.3570  200.3370 C   0  0  0  0  0  0  0  0  0  0  0  0
  177.2240  145.7490  200.5680 N   0  0  0  0  0  0  0  0  0  0  0  0
  178.7690  144.0470  199.6960 C   0  0  0  0  0  0  0  0  0  0  0  0
  178.5190  147.4010  201.3230 N   0  0  0  0  0  0  0  0  0  0  0  0
  179.2970  143.9490  197.2790 C   0  0  0  0  0  0  0  0  0  0  0  0
  176.9850  144.1540  197.9640 C   0  0  0  0  0  0  0  0  0  0  0  0
  175.9590  144.2580  199.0480 C   0  0  0  0  0  0  0  0  0  0  0  0
  174.7890  143.5450  198.7930 C   0  0  0  0  0  0  0  0  0  0  0  0
  173.7320  143.5600  199.6930 C   0  0  0  0  0  0  0  0  0  0  0  0
  173.8460  144.2920  200.8670 C   0  0  0  0  0  0  0  0  0  0  0  0
  175.0000  145.0050  201.1420 C   0  0  0  0  0  0  0  0  0  0  0  0
  176.0590  144.9950  200.2410 C   0  0  0  0  0  0  0  0  0  0  0  0
  177.2870  146.9820  201.1620 C   0  0  0  0  0  0  0  0  0  0  0  0
  174.7060  142.9710  197.8730 H   0  0  0  0  0  0  0  0  0  0  0  0
  183.2920  145.8810  201.3510 H   0  0  0  0  0  0  0  0  0  0  0  0
  183.1230  144.2920  200.6540 H   0  0  0  0  0  0  0  0  0  0  0  0
  178.2820  143.2510  200.2550 H   0  0  0  0  0  0  0  0  0  0  0  0
  179.8290  143.8060  199.7380 H   0  0  0  0  0  0  0  0  0  0  0  0
  179.4730  142.9180  196.9790 H   0  0  0  0  0  0  0  0  0  0  0  0
  180.2550  144.3600  197.5910 H   0  0  0  0  0  0  0  0  0  0  0  0
  179.0110  144.5090  196.3910 H   0  0  0  0  0  0  0  0  0  0  0  0
  182.8960  146.9020  199.0970 H   0  0  0  0  0  0  0  0  0  0  0  0
  184.3440  145.9210  199.1360 H   0  0  0  0  0  0  0  0  0  0  0  0
  182.8980  145.3070  198.3860 H   0  0  0  0  0  0  0  0  0  0  0  0
  173.0320  144.3200  201.5890 H   0  0  0  0  0  0  0  0  0  0  0  0
  175.0650  145.5680  202.0710 H   0  0  0  0  0  0  0  0  0  0  0  0
  176.4110  147.5520  201.4660 H   0  0  0  0  0  0  0  0  0  0  0  0
  148.0060  153.3270  198.3150 N   0  0  0  0  0  0  0  0  0  0  0  0
  151.0990  151.7080  200.7930 C   0  0  0  0  0  0  0  0  0  0  0  0
  152.2650  151.4570  200.9710 O   0  0  0  0  0  0  0  0  0  0  0  0
  150.6330  149.3980  200.5310 C   0  0  0  0  0  0  0  0  0  0  0  0
  145.0630  158.4100  199.4030 N   0  0  0  0  0  0  0  0  0  0  0  0
  150.1700  150.7800  200.5640 O   0  0  0  0  0  0  0  0  0  0  0  0
  151.2920  149.1620  199.2330 C   0  0  0  0  0  0  0  0  0  0  0  0
  145.4920  159.5580  199.0560 N   0  0  0  0  0  0  0  0  0  0  0  0
  147.5980  154.9270  196.7990 O   0  0  0  0  0  0  0  0  0  0  0  0
  150.5390  153.0780  200.8050 C   0  0  0  0  0  0  0  0  0  0  0  0
  145.6800  160.6340  198.7280 N   0  0  0  0  0  0  0  0  0  0  0  0
  149.3200  153.5030  200.3370 C   0  0  0  0  0  0  0  0  0  0  0  0
  149.2910  154.8590  200.5680 N   0  0  0  0  0  0  0  0  0  0  0  0
  148.1510  152.8620  199.6950 C   0  0  0  0  0  0  0  0  0  0  0  0
  151.2630  154.1400  201.3230 N   0  0  0  0  0  0  0  0  0  0  0  0
  148.2210  152.3300  197.2780 C   0  0  0  0  0  0  0  0  0  0  0  0
  147.7010  154.5920  197.9640 C   0  0  0  0  0  0  0  0  0  0  0  0
  147.4810  155.5990  199.0480 C   0  0  0  0  0  0  0  0  0  0  0  0
  146.4410  156.4910  198.7920 C   0  0  0  0  0  0  0  0  0  0  0  0
  146.1270  157.5010  199.6920 C   0  0  0  0  0  0  0  0  0  0  0  0
  146.8580  157.6200  200.8660 C   0  0  0  0  0  0  0  0  0  0  0  0
  147.8930  156.7430  201.1410 C   0  0  0  0  0  0  0  0  0  0  0  0
  148.2120  155.7330  200.2400 C   0  0  0  0  0  0  0  0  0  0  0  0
  150.4820  155.1810  201.1620 C   0  0  0  0  0  0  0  0  0  0  0  0
  145.8690  156.3920  197.8710 H   0  0  0  0  0  0  0  0  0  0  0  0
  151.2970  149.1310  201.3510 H   0  0  0  0  0  0  0  0  0  0  0  0
  149.7330  148.7990  200.6540 H   0  0  0  0  0  0  0  0  0  0  0  0
  147.2430  153.0790  200.2540 H   0  0  0  0  0  0  0  0  0  0  0  0
  148.2510  151.7810  199.7380 H   0  0  0  0  0  0  0  0  0  0  0  0
  147.2960  151.8430  196.9780 H   0  0  0  0  0  0  0  0  0  0  0  0
  148.9090  151.5470  197.5910 H   0  0  0  0  0  0  0  0  0  0  0  0
  148.6650  152.7760  196.3900 H   0  0  0  0  0  0  0  0  0  0  0  0
  152.1450  149.8230  199.0980 H   0  0  0  0  0  0  0  0  0  0  0  0
  151.6610  148.1430  199.1360 H   0  0  0  0  0  0  0  0  0  0  0  0
  150.6290  149.3280  198.3860 H   0  0  0  0  0  0  0  0  0  0  0  0
  146.6330  158.4020  201.5880 H   0  0  0  0  0  0  0  0  0  0  0  0
  148.4490  156.8560  202.0700 H   0  0  0  0  0  0  0  0  0  0  0  0
  150.7520  156.1910  201.4660 H   0  0  0  0  0  0  0  0  0  0  0  0
  147.4580  184.9810  198.3110 N   0  0  0  0  0  0  0  0  0  0  0  0
  146.8680  181.5390  200.7890 C   0  0  0  0  0  0  0  0  0  0  0  0
  146.9880  180.3530  200.9670 O   0  0  0  0  0  0  0  0  0  0  0  0
  144.5270  181.2720  200.5250 C   0  0  0  0  0  0  0  0  0  0  0  0
  151.3890  189.3450  199.4010 N   0  0  0  0  0  0  0  0  0  0  0  0
  145.6990  182.1380  200.5590 O   0  0  0  0  0  0  0  0  0  0  0  0
  144.5050  180.5730  199.2280 C   0  0  0  0  0  0  0  0  0  0  0  0
  152.6130  189.2890  199.0540 N   0  0  0  0  0  0  0  0  0  0  0  0
  148.8550  185.8620  196.7950 O   0  0  0  0  0  0  0  0  0  0  0  0
  148.0000  182.4940  200.8010 C   0  0  0  0  0  0  0  0  0  0  0  0
  153.6950  189.4410  198.7270 N   0  0  0  0  0  0  0  0  0  0  0  0
  148.0290  183.7840  200.3330 C   0  0  0  0  0  0  0  0  0  0  0  0
  149.3100  184.2290  200.5650 N   0  0  0  0  0  0  0  0  0  0  0  0
  147.0600  184.6990  199.6910 C   0  0  0  0  0  0  0  0  0  0  0  0
  149.2320  182.1320  201.3190 N   0  0  0  0  0  0  0  0  0  0  0  0
  146.5760  184.4690  197.2740 C   0  0  0  0  0  0  0  0  0  0  0  0
  148.5670  185.6600  197.9600 C   0  0  0  0  0  0  0  0  0  0  0  0
  149.4580  186.1800  199.0450 C   0  0  0  0  0  0  0  0  0  0  0  0
  149.9870  187.4430  198.7900 C   0  0  0  0  0  0  0  0  0  0  0  0
  150.8510  188.0530  199.6900 C   0  0  0  0  0  0  0  0  0  0  0  0
  151.1890  187.3930  200.8640 C   0  0  0  0  0  0  0  0  0  0  0  0
  150.6730  186.1380  201.1390 C   0  0  0  0  0  0  0  0  0  0  0  0
  149.8100  185.5240  200.2370 C   0  0  0  0  0  0  0  0  0  0  0  0
  149.9830  183.1950  201.1580 C   0  0  0  0  0  0  0  0  0  0  0  0
  149.7170  187.9570  197.8690 H   0  0  0  0  0  0  0  0  0  0  0  0
  144.4770  180.5590  201.3450 H   0  0  0  0  0  0  0  0  0  0  0  0
  143.6800  181.9440  200.6490 H   0  0  0  0  0  0  0  0  0  0  0  0
  146.9870  185.6300  200.2500 H   0  0  0  0  0  0  0  0  0  0  0  0
  146.0610  184.2720  199.7330 H   0  0  0  0  0  0  0  0  0  0  0  0
  145.8280  185.2000  196.9740 H   0  0  0  0  0  0  0  0  0  0  0  0
  146.0420  183.5740  197.5870 H   0  0  0  0  0  0  0  0  0  0  0  0
  147.1370  184.1840  196.3860 H   0  0  0  0  0  0  0  0  0  0  0  0
  145.3970  179.9650  199.0920 H   0  0  0  0  0  0  0  0  0  0  0  0
  143.6490  179.9080  199.1300 H   0  0  0  0  0  0  0  0  0  0  0  0
  144.4600  181.2550  198.3810 H   0  0  0  0  0  0  0  0  0  0  0  0
  151.8640  187.8480  201.5860 H   0  0  0  0  0  0  0  0  0  0  0  0
  150.9510  185.6440  202.0680 H   0  0  0  0  0  0  0  0  0  0  0  0
  151.0270  183.2480  201.4630 H   0  0  0  0  0  0  0  0  0  0  0  0
  177.4080  195.2810  198.3120 N   0  0  0  0  0  0  0  0  0  0  0  0
  173.9520  194.7780  200.7900 C   0  0  0  0  0  0  0  0  0  0  0  0
  172.8610  194.2970  200.9680 O   0  0  0  0  0  0  0  0  0  0  0  0
  172.9740  196.9220  200.5260 C   0  0  0  0  0  0  0  0  0  0  0  0
  182.7730  192.8920  199.4020 N   0  0  0  0  0  0  0  0  0  0  0  0
  174.1610  196.0750  200.5600 O   0  0  0  0  0  0  0  0  0  0  0  0
  172.3030  196.7270  199.2290 C   0  0  0  0  0  0  0  0  0  0  0  0
  183.0990  191.7100  199.0550 N   0  0  0  0  0  0  0  0  0  0  0  0
  178.6770  194.2250  196.7960 O   0  0  0  0  0  0  0  0  0  0  0  0
  175.2100  193.9970  200.8020 C   0  0  0  0  0  0  0  0  0  0  0  0
  183.5780  190.7280  198.7270 N   0  0  0  0  0  0  0  0  0  0  0  0
  176.4460  194.3680  200.3340 C   0  0  0  0  0  0  0  0  0  0  0  0
  177.2660  193.2870  200.5650 N   0  0  0  0  0  0  0  0  0  0  0  0
  177.0170  195.5720  199.6920 C   0  0  0  0  0  0  0  0  0  0  0  0
  175.2470  192.7130  201.3200 N   0  0  0  0  0  0  0  0  0  0  0  0
  176.6490  195.9610  197.2750 C   0  0  0  0  0  0  0  0  0  0  0  0
  178.3970  194.4360  197.9610 C   0  0  0  0  0  0  0  0  0  0  0  0
  179.1660  193.7490  199.0450 C   0  0  0  0  0  0  0  0  0  0  0  0
  180.5320  193.6370  198.7900 C   0  0  0  0  0  0  0  0  0  0  0  0
  181.3780  193.0040  199.6900 C   0  0  0  0  0  0  0  0  0  0  0  0
  180.8550  192.4780  200.8640 C   0  0  0  0  0  0  0  0  0  0  0  0
  179.5030  192.5810  201.1390 C   0  0  0  0  0  0  0  0  0  0  0  0
  178.6520  193.2120  200.2380 C   0  0  0  0  0  0  0  0  0  0  0  0
  176.4900  192.3270  201.1590 C   0  0  0  0  0  0  0  0  0  0  0  0
  180.9360  194.0520  197.8690 H   0  0  0  0  0  0  0  0  0  0  0  0
  172.2810  196.7490  201.3460 H   0  0  0  0  0  0  0  0  0  0  0  0
  173.3520  197.9350  200.6500 H   0  0  0  0  0  0  0  0  0  0  0  0
  177.8800  195.9300  200.2510 H   0  0  0  0  0  0  0  0  0  0  0  0
  176.3020  196.3900  199.7340 H   0  0  0  0  0  0  0  0  0  0  0  0
  177.1130  196.8990  196.9750 H   0  0  0  0  0  0  0  0  0  0  0  0
  175.6320  196.1920  197.5880 H   0  0  0  0  0  0  0  0  0  0  0  0
  176.5510  195.3400  196.3870 H   0  0  0  0  0  0  0  0  0  0  0  0
  172.0010  195.6900  199.0930 H   0  0  0  0  0  0  0  0  0  0  0  0
  171.4060  197.3350  199.1310 H   0  0  0  0  0  0  0  0  0  0  0  0
  172.9370  196.9800  198.3820 H   0  0  0  0  0  0  0  0  0  0  0  0
  181.4970  191.9770  201.5870 H   0  0  0  0  0  0  0  0  0  0  0  0
  179.1190  192.1640  202.0680 H   0  0  0  0  0  0  0  0  0  0  0  0
  176.8630  191.3510  201.4640 H   0  0  0  0  0  0  0  0  0  0  0  0
  2  3  2  0  0  0  0
  2  6  1  0  0  0  0
  4  6  1  0  0  0  0
  4  7  1  0  0  0  0
  5  8  2  0  0  0  0
  2 10  1  0  0  0  0
  8 11  2  0  0  0  0
 10 12  2  0  0  0  0
 12 13  1  0  0  0  0
  1 14  1  0  0  0  0
 12 14  1  0  0  0  0
 10 15  1  0  0  0  0
  1 16  1  0  0  0  0
  1 17  1  0  0  0  0
  9 17  2  0  0  0  0
 17 18  1  0  0  0  0
 18 19  1  0  0  0  0
  5 20  1  0  0  0  0
 19 20  2  0  0  0  0
 20 21  1  0  0  0  0
 21 22  2  0  0  0  0
 13 23  1  0  0  0  0
 18 23  2  0  0  0  0
 22 23  1  0  0  0  0
 13 24  1  0  0  0  0
 15 24  2  0  0  0  0
 19 25  1  0  0  0  0
  4 26  1  0  0  0  0
  4 27  1  0  0  0  0
 14 28  1  0  0  0  0
 14 29  1  0  0  0  0
 16 30  1  0  0  0  0
 16 31  1  0  0  0  0
 16 32  1  0  0  0  0
  7 33  1  0  0  0  0
  7 34  1  0  0  0  0
  7 35  1  0  0  0  0
 21 36  1  0  0  0  0
 22 37  1  0  0  0  0
 24 38  1  0  0  0  0
 40 41  2  0  0  0  0
 40 44  1  0  0  0  0
 42 44  1  0  0  0  0
 42 45  1  0  0  0  0
 43 46  2  0  0  0  0
 40 48  1  0  0  0  0
 46 49  2  0  0  0  0
 48 50  2  0  0  0  0
 50 51  1  0  0  0  0
 39 52  1  0  0  0  0
 50 52  1  0  0  0  0
 48 53  1  0  0  0  0
 39 54  1  0  0  0  0
 39 55  1  0  0  0  0
 47 55  2  0  0  0  0
 55 56  1  0  0  0  0
 56 57  1  0  0  0  0
 43 58  1  0  0  0  0
 57 58  2  0  0  0  0
 58 59  1  0  0  0  0
 59 60  2  0  0  0  0
 51 61  1  0  0  0  0
 56 61  2  0  0  0  0
 60 61  1  0  0  0  0
 51 62  1  0  0  0  0
 53 62  2  0  0  0  0
 57 63  1  0  0  0  0
 42 64  1  0  0  0  0
 42 65  1  0  0  0  0
 52 66  1  0  0  0  0
 52 67  1  0  0  0  0
 54 68  1  0  0  0  0
 54 69  1  0  0  0  0
 54 70  1  0  0  0  0
 45 71  1  0  0  0  0
 45 72  1  0  0  0  0
 45 73  1  0  0  0  0
 59 74  1  0  0  0  0
 60 75  1  0  0  0  0
 62 76  1  0  0  0  0
 78 79  2  0  0  0  0
 78 82  1  0  0  0  0
 80 82  1  0  0  0  0
 80 83  1  0  0  0  0
 81 84  2  0  0  0  0
 78 86  1  0  0  0  0
 84 87  2  0  0  0  0
 86 88  2  0  0  0  0
 88 89  1  0  0  0  0
 77 90  1  0  0  0  0
 88 90  1  0  0  0  0
 86 91  1  0  0  0  0
 77 92  1  0  0  0  0
 77 93  1  0  0  0  0
 85 93  2  0  0  0  0
 93 94  1  0  0  0  0
 94 95  1  0  0  0  0
 81 96  1  0  0  0  0
 95 96  2  0  0  0  0
 96 97  1  0  0  0  0
 97 98  2  0  0  0  0
 89 99  1  0  0  0  0
 94 99  2  0  0  0  0
 98 99  1  0  0  0  0
 89100  1  0  0  0  0
 91100  2  0  0  0  0
 95101  1  0  0  0  0
 80102  1  0  0  0  0
 80103  1  0  0  0  0
 90104  1  0  0  0  0
 90105  1  0  0  0  0
 92106  1  0  0  0  0
 92107  1  0  0  0  0
 92108  1  0  0  0  0
 83109  1  0  0  0  0
 83110  1  0  0  0  0
 83111  1  0  0  0  0
 97112  1  0  0  0  0
 98113  1  0  0  0  0
100114  1  0  0  0  0
116117  2  0  0  0  0
116120  1  0  0  0  0
118120  1  0  0  0  0
118121  1  0  0  0  0
119122  2  0  0  0  0
116124  1  0  0  0  0
122125  2  0  0  0  0
124126  2  0  0  0  0
126127  1  0  0  0  0
115128  1  0  0  0  0
126128  1  0  0  0  0
124129  1  0  0  0  0
115130  1  0  0  0  0
115131  1  0  0  0  0
123131  2  0  0  0  0
131132  1  0  0  0  0
132133  1  0  0  0  0
119134  1  0  0  0  0
133134  2  0  0  0  0
134135  1  0  0  0  0
135136  2  0  0  0  0
127137  1  0  0  0  0
132137  2  0  0  0  0
136137  1  0  0  0  0
127138  1  0  0  0  0
129138  2  0  0  0  0
133139  1  0  0  0  0
118140  1  0  0  0  0
118141  1  0  0  0  0
128142  1  0  0  0  0
128143  1  0  0  0  0
130144  1  0  0  0  0
130145  1  0  0  0  0
130146  1  0  0  0  0
121147  1  0  0  0  0
121148  1  0  0  0  0
121149  1  0  0  0  0
135150  1  0  0  0  0
136151  1  0  0  0  0
138152  1  0  0  0  0
154155  2  0  0  0  0
154158  1  0  0  0  0
156158  1  0  0  0  0
156159  1  0  0  0  0
157160  2  0  0  0  0
154162  1  0  0  0  0
160163  2  0  0  0  0
162164  2  0  0  0  0
164165  1  0  0  0  0
153166  1  0  0  0  0
164166  1  0  0  0  0
162167  1  0  0  0  0
153168  1  0  0  0  0
153169  1  0  0  0  0
161169  2  0  0  0  0
169170  1  0  0  0  0
170171  1  0  0  0  0
157172  1  0  0  0  0
171172  2  0  0  0  0
172173  1  0  0  0  0
173174  2  0  0  0  0
165175  1  0  0  0  0
170175  2  0  0  0  0
174175  1  0  0  0  0
165176  1  0  0  0  0
167176  2  0  0  0  0
171177  1  0  0  0  0
156178  1  0  0  0  0
156179  1  0  0  0  0
166180  1  0  0  0  0
166181  1  0  0  0  0
168182  1  0  0  0  0
168183  1  0  0  0  0
168184  1  0  0  0  0
159185  1  0  0  0  0
159186  1  0  0  0  0
159187  1  0  0  0  0
173188  1  0  0  0  0
174189  1  0  0  0  0
176190  1  0  0  0  0
M  END
$$$$
