8DB7
  PyMOL3.1          3D                             0

 39 42  0  0  0  0  0  0  0  0999 V2000
   32.2380  -30.9900    0.7530 C   0  0  0  0  0  0  0  0  0  0  0  0
   33.3420  -31.7880    0.9700 C   0  0  0  0  0  0  0  0  0  0  0  0
   33.3100  -33.0940    0.5320 C   0  0  0  0  0  0  0  0  0  0  0  0
   32.2000  -33.6000   -0.1210 C   0  0  0  0  0  0  0  0  0  0  0  0
   32.2630  -34.9900   -0.5420 N   0  0  0  0  0  0  0  0  0  0  0  0
   31.1230  -35.8040   -0.8800 C   0  0  0  0  0  0  0  0  0  0  0  0
   29.7130  -35.4050   -0.9130 N   0  0  0  0  0  0  0  0  0  0  0  0
   28.9410  -36.5560   -1.3270 C   0  0  0  0  0  0  0  0  0  0  0  0
   29.8690  -37.6990   -1.5790 C   0  0  0  0  0  0  0  0  0  0  0  0
   31.2010  -37.2130   -1.2950 N   0  0  0  0  0  0  0  0  0  0  0  0
   31.0960  -32.7940   -0.3290 C   0  0  0  0  0  0  0  0  0  0  0  0
   31.1090  -31.4780    0.1080 C   0  0  0  0  0  0  0  0  0  0  0  0
   32.2890  -29.7100    1.1860 F   0  0  0  0  0  0  0  0  0  0  0  0
   -0.7250   -9.4850   21.8750 C   0  0  0  0  0  0  0  0  0  0  0  0
    0.4060   -9.0560   21.2040 C   0  0  0  0  0  0  0  0  0  0  0  0
    1.3150   -8.2320   21.8400 C   0  0  0  0  0  0  0  0  0  0  0  0
    1.1010   -7.8450   23.1530 C   0  0  0  0  0  0  0  0  0  0  0  0
    2.0350   -6.9380   23.7830 N   0  0  0  0  0  0  0  0  0  0  0  0
    2.3870   -6.9810   25.1720 C   0  0  0  0  0  0  0  0  0  0  0  0
    3.2970   -6.0300   25.8200 N   0  0  0  0  0  0  0  0  0  0  0  0
    3.4100   -6.4160   27.2060 C   0  0  0  0  0  0  0  0  0  0  0  0
    2.5400   -7.6200   27.4280 C   0  0  0  0  0  0  0  0  0  0  0  0
    1.9380   -7.9510   26.1670 N   0  0  0  0  0  0  0  0  0  0  0  0
   -0.0400   -8.2490   23.8280 C   0  0  0  0  0  0  0  0  0  0  0  0
   -0.9530   -9.0930   23.1940 C   0  0  0  0  0  0  0  0  0  0  0  0
   -1.6010  -10.3020   21.2160 F   0  0  0  0  0  0  0  0  0  0  0  0
   20.3170  -38.6970   40.1930 C   0  0  0  0  0  0  0  0  0  0  0  0
   21.3140  -39.1980   41.0040 C   0  0  0  0  0  0  0  0  0  0  0  0
   21.2860  -40.5280   41.3770 C   0  0  0  0  0  0  0  0  0  0  0  0
   20.2710  -41.3630   40.9460 C   0  0  0  0  0  0  0  0  0  0  0  0
   20.2430  -42.7670   41.3290 N   0  0  0  0  0  0  0  0  0  0  0  0
   21.4490  -43.5050   41.6450 C   0  0  0  0  0  0  0  0  0  0  0  0
   22.8440  -42.9990   41.6570 N   0  0  0  0  0  0  0  0  0  0  0  0
   23.7160  -44.0810   42.0400 C   0  0  0  0  0  0  0  0  0  0  0  0
   22.8520  -45.2870   42.2760 C   0  0  0  0  0  0  0  0  0  0  0  0
   21.4740  -44.9210   42.0330 N   0  0  0  0  0  0  0  0  0  0  0  0
   19.2740  -40.8520   40.1310 C   0  0  0  0  0  0  0  0  0  0  0  0
   19.2870  -39.5160   39.7600 C   0  0  0  0  0  0  0  0  0  0  0  0
   20.3510  -37.3870   39.8330 F   0  0  0  0  0  0  0  0  0  0  0  0
  1  2  1  0  0  0  0
  2  3  2  0  0  0  0
  3  4  1  0  0  0  0
  4  5  1  0  0  0  0
  5  6  1  0  0  0  0
  6  7  1  0  0  0  0
  7  8  1  0  0  0  0
  8  9  1  0  0  0  0
  6 10  2  0  0  0  0
  9 10  1  0  0  0  0
  4 11  2  0  0  0  0
  1 12  2  0  0  0  0
 11 12  1  0  0  0  0
  1 13  1  0  0  0  0
 14 15  1  0  0  0  0
 15 16  2  0  0  0  0
 16 17  1  0  0  0  0
 17 18  1  0  0  0  0
 18 19  1  0  0  0  0
 19 20  1  0  0  0  0
 20 21  1  0  0  0  0
 21 22  1  0  0  0  0
 19 23  2  0  0  0  0
 22 23  1  0  0  0  0
 17 24  2  0  0  0  0
 14 25  2  0  0  0  0
 24 25  1  0  0  0  0
 14 26  1  0  0  0  0
 27 28  1  0  0  0  0
 28 29  2  0  0  0  0
 29 30  1  0  0  0  0
 30 31  1  0  0  0  0
 31 32  1  0  0  0  0
 32 33  1  0  0  0  0
 33 34  1  0  0  0  0
 34 35  1  0  0  0  0
 32 36  2  0  0  0  0
 35 36  1  0  0  0  0
 30 37  2  0  0  0  0
 27 38  2  0  0  0  0
 37 38  1  0  0  0  0
 27 39  1  0  0  0  0
M  END
$$$$
