8DB7
  PyMOL3.1          3D                             0

 13 14  0  0  0  0  0  0  0  0999 V2000
   -0.7250   -9.4850   21.8750 C   0  0  0  0  0  0  0  0  0  0  0  0
    0.4060   -9.0560   21.2040 C   0  0  0  0  0  0  0  0  0  0  0  0
    1.3150   -8.2320   21.8400 C   0  0  0  0  0  0  0  0  0  0  0  0
    1.1010   -7.8450   23.1530 C   0  0  0  0  0  0  0  0  0  0  0  0
    2.0350   -6.9380   23.7830 N   0  0  0  0  0  0  0  0  0  0  0  0
    2.3870   -6.9810   25.1720 C   0  0  0  0  0  0  0  0  0  0  0  0
    3.2970   -6.0300   25.8200 N   0  0  0  0  0  0  0  0  0  0  0  0
    3.4100   -6.4160   27.2060 C   0  0  0  0  0  0  0  0  0  0  0  0
    2.5400   -7.6200   27.4280 C   0  0  0  0  0  0  0  0  0  0  0  0
    1.9380   -7.9510   26.1670 N   0  0  0  0  0  0  0  0  0  0  0  0
   -0.0400   -8.2490   23.8280 C   0  0  0  0  0  0  0  0  0  0  0  0
   -0.9530   -9.0930   23.1940 C   0  0  0  0  0  0  0  0  0  0  0  0
   -1.6010  -10.3020   21.2160 F   0  0  0  0  0  0  0  0  0  0  0  0
  1  2  1  0  0  0  0
  2  3  2  0  0  0  0
  3  4  1  0  0  0  0
  4  5  1  0  0  0  0
  5  6  1  0  0  0  0
  6  7  1  0  0  0  0
  7  8  1  0  0  0  0
  8  9  1  0  0  0  0
  6 10  2  0  0  0  0
  9 10  1  0  0  0  0
  4 11  2  0  0  0  0
  1 12  2  0  0  0  0
 11 12  1  0  0  0  0
  1 13  1  0  0  0  0
M  END
$$$$
