7VNR
  PyMOL3.1          3D                             0

 42 44  0  0  0  0  0  0  0  0999 V2000
  123.6180  140.8260  136.8210 O   0  0  0  0  0  0  0  0  0  0  0  0
  123.0990  142.1760  138.5680 N   0  0  0  0  0  0  0  0  0  0  0  0
  124.1280  143.9550  136.7760 C   0  0  0  0  0  0  0  0  0  0  0  0
  125.1660  143.6000  135.0720 C   0  0  0  0  0  0  0  0  0  0  0  0
  123.9690  143.8790  135.4840 C   0  0  0  0  0  0  0  0  0  0  0  0
  124.8680  142.7770  137.1610 C   0  0  0  0  0  0  0  0  0  0  0  0
  125.7050  142.4280  135.9130 C   0  0  0  0  0  0  0  0  0  0  0  0
  125.0600  145.1810  136.9140 C   0  0  0  0  0  0  0  0  0  0  0  0
  125.8960  144.7990  135.5280 C   0  0  0  0  0  0  0  0  0  0  0  0
  123.8420  141.7980  137.4340 C   0  0  0  0  0  0  0  0  0  0  0  0
  122.0410  141.3920  139.0120 C   0  0  0  0  0  0  0  0  0  0  0  0
  122.2790  140.1960  139.5310 C   0  0  0  0  0  0  0  0  0  0  0  0
  120.8300  141.9170  138.9040 C   0  0  0  0  0  0  0  0  0  0  0  0
  121.2270  139.4680  139.9590 C   0  0  0  0  0  0  0  0  0  0  0  0
  119.7590  141.2100  139.3220 C   0  0  0  0  0  0  0  0  0  0  0  0
  119.9990  139.9810  139.8470 C   0  0  0  0  0  0  0  0  0  0  0  0
  123.6940  139.7160  139.6020 C   0  0  0  0  0  0  0  0  0  0  0  0
  120.7610  143.2680  138.2890 C   0  0  0  0  0  0  0  0  0  0  0  0
  118.8790  139.1510  140.3340 C   0  0  0  0  0  0  0  0  0  0  0  0
  123.3320  143.0080  139.0360 H   0  0  0  0  0  0  0  0  0  0  0  0
  123.2060  144.0790  137.2880 H   0  0  0  0  0  0  0  0  0  0  0  0
  125.2310  143.4460  134.0240 H   0  0  0  0  0  0  0  0  0  0  0  0
  123.7100  144.8480  135.1110 H   0  0  0  0  0  0  0  0  0  0  0  0
  123.2600  143.1130  135.2330 H   0  0  0  0  0  0  0  0  0  0  0  0
  125.4570  142.9590  138.0350 H   0  0  0  0  0  0  0  0  0  0  0  0
  125.4310  141.4760  135.5070 H   0  0  0  0  0  0  0  0  0  0  0  0
  126.7470  142.5600  136.1130 H   0  0  0  0  0  0  0  0  0  0  0  0
  124.4860  146.0850  136.8000 H   0  0  0  0  0  0  0  0  0  0  0  0
  125.6470  145.1160  137.8140 H   0  0  0  0  0  0  0  0  0  0  0  0
  126.9120  144.5360  135.7410 H   0  0  0  0  0  0  0  0  0  0  0  0
  125.7750  145.5620  134.7910 H   0  0  0  0  0  0  0  0  0  0  0  0
  121.3550  138.5040  140.3780 H   0  0  0  0  0  0  0  0  0  0  0  0
  118.7720  141.6020  139.2480 H   0  0  0  0  0  0  0  0  0  0  0  0
  123.9080  139.1860  138.6870 H   0  0  0  0  0  0  0  0  0  0  0  0
  123.8180  139.0830  140.4620 H   0  0  0  0  0  0  0  0  0  0  0  0
  124.3450  140.5740  139.6840 H   0  0  0  0  0  0  0  0  0  0  0  0
  119.7500  143.5000  138.0140 H   0  0  0  0  0  0  0  0  0  0  0  0
  121.3750  143.2190  137.4090 H   0  0  0  0  0  0  0  0  0  0  0  0
  121.1590  144.0050  138.9640 H   0  0  0  0  0  0  0  0  0  0  0  0
  119.2840  138.4680  141.0620 H   0  0  0  0  0  0  0  0  0  0  0  0
  118.4780  138.6070  139.4900 H   0  0  0  0  0  0  0  0  0  0  0  0
  118.1460  139.8070  140.7720 H   0  0  0  0  0  0  0  0  0  0  0  0
  3  5  1  0  0  0  0
  4  5  1  0  0  0  0
  3  6  1  0  0  0  0
  4  7  1  0  0  0  0
  6  7  1  0  0  0  0
  3  8  1  0  0  0  0
  4  9  1  0  0  0  0
  8  9  1  0  0  0  0
  1 10  2  0  0  0  0
  2 10  1  0  0  0  0
  6 10  1  0  0  0  0
  2 11  1  0  0  0  0
 11 12  2  0  0  0  0
 11 13  1  0  0  0  0
 12 14  1  0  0  0  0
 13 15  2  0  0  0  0
 14 16  2  0  0  0  0
 15 16  1  0  0  0  0
 12 17  1  0  0  0  0
 13 18  1  0  0  0  0
 16 19  1  0  0  0  0
  2 20  1  0  0  0  0
  3 21  1  0  0  0  0
  4 22  1  0  0  0  0
  5 23  1  0  0  0  0
  5 24  1  0  0  0  0
  6 25  1  0  0  0  0
  7 26  1  0  0  0  0
  7 27  1  0  0  0  0
  8 28  1  0  0  0  0
  8 29  1  0  0  0  0
  9 30  1  0  0  0  0
  9 31  1  0  0  0  0
 14 32  1  0  0  0  0
 15 33  1  0  0  0  0
 17 34  1  0  0  0  0
 17 35  1  0  0  0  0
 17 36  1  0  0  0  0
 18 37  1  0  0  0  0
 18 38  1  0  0  0  0
 18 39  1  0  0  0  0
 19 40  1  0  0  0  0
 19 41  1  0  0  0  0
 19 42  1  0  0  0  0
M  END
$$$$
