8JXW
  PyMOL3.1          3D                             0

 23 26  0  0  0  0  0  0  0  0999 V2000
  134.3990  133.5220  110.2350 Cl  0  0  0  0  0  0  0  0  0  0  0  0
  145.9970  133.5710  109.4730 C   0  0  0  0  0  0  0  0  0  0  0  0
  145.3360  134.8710  109.3610 N   0  0  0  0  0  0  0  0  0  0  0  0
  144.7360  134.9880  108.0300 C   0  0  0  0  0  0  0  0  0  0  0  0
  143.6820  133.8720  107.8200 C   0  0  0  0  0  0  0  0  0  0  0  0
  142.5670  133.8360  108.8100 N   0  0  0  0  0  0  0  0  0  0  0  0
  143.2730  133.7960  110.1060 C   0  0  0  0  0  0  0  0  0  0  0  0
  144.2780  134.9280  110.3670 C   0  0  0  0  0  0  0  0  0  0  0  0
  141.0900  133.8510  108.6320 C   0  0  0  0  0  0  0  0  0  0  0  0
  140.3400  133.8320  109.7090 N   0  0  0  0  0  0  0  0  0  0  0  0
  138.9230  133.8110  109.7930 C   0  0  0  0  0  0  0  0  0  0  0  0
  138.0480  134.5010  108.9260 C   0  0  0  0  0  0  0  0  0  0  0  0
  136.6450  134.4280  109.0300 C   0  0  0  0  0  0  0  0  0  0  0  0
  136.1120  133.6550  110.0330 C   0  0  0  0  0  0  0  0  0  0  0  0
  136.9160  132.9580  110.8940 C   0  0  0  0  0  0  0  0  0  0  0  0
  138.2920  133.0350  110.7740 C   0  0  0  0  0  0  0  0  0  0  0  0
  138.5610  135.2940  107.9410 O   0  0  0  0  0  0  0  0  0  0  0  0
  139.2490  134.5920  106.9660 C   0  0  0  0  0  0  0  0  0  0  0  0
  138.6230  134.6660  105.7150 C   0  0  0  0  0  0  0  0  0  0  0  0
  139.1860  134.0230  104.6310 C   0  0  0  0  0  0  0  0  0  0  0  0
  140.3600  133.3200  104.8220 C   0  0  0  0  0  0  0  0  0  0  0  0
  140.9730  133.2550  106.0800 C   0  0  0  0  0  0  0  0  0  0  0  0
  140.4530  133.8980  107.2200 C   0  0  0  0  0  0  0  0  0  0  0  0
  2  3  1  0  0  0  0
  3  4  1  0  0  0  0
  4  5  1  0  0  0  0
  5  6  1  0  0  0  0
  6  7  1  0  0  0  0
  3  8  1  0  0  0  0
  7  8  1  0  0  0  0
  6  9  1  0  0  0  0
  9 10  2  0  0  0  0
 10 11  1  0  0  0  0
 11 12  1  0  0  0  0
 12 13  2  0  0  0  0
  1 14  1  0  0  0  0
 13 14  1  0  0  0  0
 14 15  2  0  0  0  0
 11 16  2  0  0  0  0
 15 16  1  0  0  0  0
 12 17  1  0  0  0  0
 17 18  1  0  0  0  0
 18 19  2  0  0  0  0
 19 20  1  0  0  0  0
 20 21  2  0  0  0  0
 21 22  1  0  0  0  0
  9 23  1  0  0  0  0
 18 23  1  0  0  0  0
 22 23  2  0  0  0  0
M  END
$$$$
