8IJA
  PyMOL3.1          3D                             0

  9  9  0  0  0  0  0  0  0  0999 V2000
  126.4350  120.6840  165.1980 N   0  0  0  0  0  0  0  0  0  0  0  0
  126.9370  121.3130  164.1220 C   0  0  0  0  0  0  0  0  0  0  0  0
  127.9890  122.6180  161.8600 O   0  5  0  0  0  0  0  0  0  0  0  0
  126.5110  122.5800  163.7130 C   0  0  0  0  0  0  0  0  0  0  0  0
  126.9400  124.4490  162.2940 O   0  0  0  0  0  0  0  0  0  0  0  0
  125.4910  123.1900  164.4440 C   0  0  0  0  0  0  0  0  0  0  0  0
  124.9780  122.5400  165.5500 C   0  0  0  0  0  0  0  0  0  0  0  0
  125.4730  121.2930  165.9060 C   0  0  0  0  0  0  0  0  0  0  0  0
  127.1520  123.2340  162.5690 C   0  0  0  0  0  0  0  0  0  0  0  0
  1  2  2  0  0  0  0
  2  4  1  0  0  0  0
  4  6  2  0  0  0  0
  6  7  1  0  0  0  0
  1  8  1  0  0  0  0
  7  8  2  0  0  0  0
  3  9  2  0  0  0  0
  4  9  1  0  0  0  0
  5  9  1  0  0  0  0
M  END
$$$$
