7D4Q
  PyMOL3.1          3D                             0

 32 35  0  0  0  0  0  0  0  0999 V2000
  139.1750  170.8150  124.7080 Cl  0  0  0  0  0  0  0  0  0  0  0  0
  136.3920  168.3480  129.7540 Cl  0  0  0  0  0  0  0  0  0  0  0  0
  140.6970  165.1400  129.2780 O   0  0  0  0  0  0  0  0  0  0  0  0
  139.7800  163.4330  124.1200 O   0  0  0  0  0  0  0  0  0  0  0  0
  136.2370  160.9530  125.5040 O   0  0  0  0  0  0  0  0  0  0  0  0
  138.3870  162.5570  120.4580 O   0  0  0  0  0  0  0  0  0  0  0  0
  140.2260  164.3340  127.0110 N   0  0  0  0  0  0  0  0  0  0  0  0
  137.9950  162.1640  124.6860 N   0  0  0  0  0  0  0  0  0  0  0  0
  137.3570  162.1310  127.1210 N   0  0  0  0  0  0  0  0  0  0  0  0
  138.9010  163.6130  128.5970 N   0  0  0  0  0  0  0  0  0  0  0  0
  139.3080  163.5200  126.4510 C   0  0  0  0  0  0  0  0  0  0  0  0
  138.4910  163.0720  127.4380 C   0  0  0  0  0  0  0  0  0  0  0  0
  139.0720  163.0550  124.9910 C   0  0  0  0  0  0  0  0  0  0  0  0
  137.7790  161.7240  123.3210 C   0  0  0  0  0  0  0  0  0  0  0  0
  141.2980  165.0430  126.3320 C   0  0  0  0  0  0  0  0  0  0  0  0
  137.1310  161.6940  125.7440 C   0  0  0  0  0  0  0  0  0  0  0  0
  139.9710  164.3950  128.3380 C   0  0  0  0  0  0  0  0  0  0  0  0
  137.1740  162.8490  122.4900 C   0  0  0  0  0  0  0  0  0  0  0  0
  140.7950  166.4290  125.9450 C   0  0  0  0  0  0  0  0  0  0  0  0
  136.4860  161.6560  128.1810 C   0  0  0  0  0  0  0  0  0  0  0  0
  137.1280  162.3710  121.0420 C   0  0  0  0  0  0  0  0  0  0  0  0
  140.9780  167.6060  126.9030 C   0  0  0  0  0  0  0  0  0  0  0  0
  140.0960  166.6360  124.6030 C   0  0  0  0  0  0  0  0  0  0  0  0
  139.8180  165.8210  130.1260 C   0  0  0  0  0  0  0  0  0  0  0  0
  140.4690  168.9940  126.5150 C   0  0  0  0  0  0  0  0  0  0  0  0
  139.5890  168.0220  124.2150 C   0  0  0  0  0  0  0  0  0  0  0  0
  139.7740  169.1990  125.1700 C   0  0  0  0  0  0  0  0  0  0  0  0
  138.6820  166.6440  129.5430 C   0  0  0  0  0  0  0  0  0  0  0  0
  140.0070  165.7410  131.6390 C   0  0  0  0  0  0  0  0  0  0  0  0
  137.7240  167.3890  130.4570 C   0  0  0  0  0  0  0  0  0  0  0  0
  139.0460  166.4920  132.5690 C   0  0  0  0  0  0  0  0  0  0  0  0
  137.9000  167.3180  131.9720 C   0  0  0  0  0  0  0  0  0  0  0  0
  7 11  4  0  0  0  0
 11 12  4  0  0  0  0
  9 12  4  0  0  0  0
 10 12  4  0  0  0  0
  4 13  2  0  0  0  0
  8 13  4  0  0  0  0
 11 13  4  0  0  0  0
  8 14  1  0  0  0  0
 14 18  1  0  0  0  0
  7 15  1  0  0  0  0
 15 19  1  0  0  0  0
  5 16  2  0  0  0  0
  8 16  4  0  0  0  0
  9 16  4  0  0  0  0
  3 17  1  0  0  0  0
  7 17  4  0  0  0  0
 10 17  4  0  0  0  0
 19 23  4  0  0  0  0
  9 20  1  0  0  0  0
  6 21  1  0  0  0  0
 18 21  1  0  0  0  0
 19 22  4  0  0  0  0
 22 25  4  0  0  0  0
  3 24  1  0  0  0  0
 24 28  4  0  0  0  0
 24 29  4  0  0  0  0
 25 27  4  0  0  0  0
 23 26  4  0  0  0  0
 26 27  4  0  0  0  0
  1 27  1  0  0  0  0
 28 30  4  0  0  0  0
 29 31  4  0  0  0  0
  2 30  1  0  0  0  0
 30 32  4  0  0  0  0
 31 32  4  0  0  0  0
M  END
$$$$
