7D4Q
  PyMOL3.1          3D                             0

 32 35  0  0  0  0  0  0  0  0999 V2000
  156.3890  124.7470  124.7070 Cl  0  0  0  0  0  0  0  0  0  0  0  0
  159.1710  127.2140  129.7540 Cl  0  0  0  0  0  0  0  0  0  0  0  0
  154.8670  130.4230  129.2780 O   0  0  0  0  0  0  0  0  0  0  0  0
  155.7840  132.1300  124.1200 O   0  0  0  0  0  0  0  0  0  0  0  0
  159.3270  134.6090  125.5040 O   0  0  0  0  0  0  0  0  0  0  0  0
  157.1770  133.0060  120.4580 O   0  0  0  0  0  0  0  0  0  0  0  0
  155.3380  131.2290  127.0110 N   0  0  0  0  0  0  0  0  0  0  0  0
  157.5690  133.3980  124.6860 N   0  0  0  0  0  0  0  0  0  0  0  0
  158.2070  133.4310  127.1210 N   0  0  0  0  0  0  0  0  0  0  0  0
  156.6630  131.9490  128.5970 N   0  0  0  0  0  0  0  0  0  0  0  0
  156.2560  132.0420  126.4510 C   0  0  0  0  0  0  0  0  0  0  0  0
  157.0730  132.4900  127.4380 C   0  0  0  0  0  0  0  0  0  0  0  0
  156.4920  132.5070  124.9910 C   0  0  0  0  0  0  0  0  0  0  0  0
  157.7850  133.8380  123.3210 C   0  0  0  0  0  0  0  0  0  0  0  0
  154.2660  130.5200  126.3320 C   0  0  0  0  0  0  0  0  0  0  0  0
  158.4330  133.8680  125.7440 C   0  0  0  0  0  0  0  0  0  0  0  0
  155.5930  131.1670  128.3380 C   0  0  0  0  0  0  0  0  0  0  0  0
  158.3900  132.7130  122.4900 C   0  0  0  0  0  0  0  0  0  0  0  0
  154.7690  129.1340  125.9450 C   0  0  0  0  0  0  0  0  0  0  0  0
  159.0780  133.9060  128.1810 C   0  0  0  0  0  0  0  0  0  0  0  0
  158.4360  133.1910  121.0420 C   0  0  0  0  0  0  0  0  0  0  0  0
  154.5850  127.9570  126.9020 C   0  0  0  0  0  0  0  0  0  0  0  0
  155.4680  128.9270  124.6030 C   0  0  0  0  0  0  0  0  0  0  0  0
  155.7460  129.7410  130.1260 C   0  0  0  0  0  0  0  0  0  0  0  0
  155.0950  126.5690  126.5140 C   0  0  0  0  0  0  0  0  0  0  0  0
  155.9750  127.5410  124.2150 C   0  0  0  0  0  0  0  0  0  0  0  0
  155.7900  126.3640  125.1690 C   0  0  0  0  0  0  0  0  0  0  0  0
  156.8810  128.9180  129.5430 C   0  0  0  0  0  0  0  0  0  0  0  0
  155.5560  129.8210  131.6390 C   0  0  0  0  0  0  0  0  0  0  0  0
  157.8390  128.1730  130.4570 C   0  0  0  0  0  0  0  0  0  0  0  0
  156.5170  129.0700  132.5690 C   0  0  0  0  0  0  0  0  0  0  0  0
  157.6630  128.2440  131.9720 C   0  0  0  0  0  0  0  0  0  0  0  0
  7 11  4  0  0  0  0
 11 12  4  0  0  0  0
  9 12  4  0  0  0  0
 10 12  4  0  0  0  0
  4 13  2  0  0  0  0
  8 13  4  0  0  0  0
 11 13  4  0  0  0  0
  8 14  1  0  0  0  0
 14 18  1  0  0  0  0
  7 15  1  0  0  0  0
 15 19  1  0  0  0  0
  5 16  2  0  0  0  0
  8 16  4  0  0  0  0
  9 16  4  0  0  0  0
  3 17  1  0  0  0  0
  7 17  4  0  0  0  0
 10 17  4  0  0  0  0
 19 23  4  0  0  0  0
  9 20  1  0  0  0  0
  6 21  1  0  0  0  0
 18 21  1  0  0  0  0
 19 22  4  0  0  0  0
 22 25  4  0  0  0  0
  3 24  1  0  0  0  0
 24 28  4  0  0  0  0
 24 29  4  0  0  0  0
 25 27  4  0  0  0  0
 23 26  4  0  0  0  0
 26 27  4  0  0  0  0
  1 27  1  0  0  0  0
 28 30  4  0  0  0  0
 29 31  4  0  0  0  0
  2 30  1  0  0  0  0
 30 32  4  0  0  0  0
 31 32  4  0  0  0  0
M  END
$$$$
