7D4Q
  PyMOL3.1          3D                             0

 32 35  0  0  0  0  0  0  0  0999 V2000
  124.7480  139.1740  124.7070 Cl  0  0  0  0  0  0  0  0  0  0  0  0
  127.2150  136.3920  129.7530 Cl  0  0  0  0  0  0  0  0  0  0  0  0
  130.4230  140.6960  129.2770 O   0  0  0  0  0  0  0  0  0  0  0  0
  132.1300  139.7790  124.1190 O   0  0  0  0  0  0  0  0  0  0  0  0
  134.6100  136.2360  125.5030 O   0  0  0  0  0  0  0  0  0  0  0  0
  133.0060  138.3860  120.4570 O   0  0  0  0  0  0  0  0  0  0  0  0
  131.2290  140.2250  127.0100 N   0  0  0  0  0  0  0  0  0  0  0  0
  133.3990  137.9940  124.6850 N   0  0  0  0  0  0  0  0  0  0  0  0
  133.4320  137.3560  127.1200 N   0  0  0  0  0  0  0  0  0  0  0  0
  131.9500  138.9000  128.5960 N   0  0  0  0  0  0  0  0  0  0  0  0
  132.0430  139.3070  126.4500 C   0  0  0  0  0  0  0  0  0  0  0  0
  132.4910  138.4900  127.4370 C   0  0  0  0  0  0  0  0  0  0  0  0
  132.5080  139.0710  124.9900 C   0  0  0  0  0  0  0  0  0  0  0  0
  133.8390  137.7780  123.3200 C   0  0  0  0  0  0  0  0  0  0  0  0
  130.5200  141.2970  126.3310 C   0  0  0  0  0  0  0  0  0  0  0  0
  133.8690  137.1300  125.7430 C   0  0  0  0  0  0  0  0  0  0  0  0
  131.1680  139.9700  128.3370 C   0  0  0  0  0  0  0  0  0  0  0  0
  132.7140  137.1730  122.4890 C   0  0  0  0  0  0  0  0  0  0  0  0
  129.1340  140.7950  125.9440 C   0  0  0  0  0  0  0  0  0  0  0  0
  133.9070  136.4850  128.1800 C   0  0  0  0  0  0  0  0  0  0  0  0
  133.1920  137.1270  121.0410 C   0  0  0  0  0  0  0  0  0  0  0  0
  127.9570  140.9780  126.9020 C   0  0  0  0  0  0  0  0  0  0  0  0
  128.9270  140.0960  124.6020 C   0  0  0  0  0  0  0  0  0  0  0  0
  129.7420  139.8170  130.1250 C   0  0  0  0  0  0  0  0  0  0  0  0
  126.5690  140.4680  126.5140 C   0  0  0  0  0  0  0  0  0  0  0  0
  127.5410  139.5880  124.2140 C   0  0  0  0  0  0  0  0  0  0  0  0
  126.3640  139.7730  125.1690 C   0  0  0  0  0  0  0  0  0  0  0  0
  128.9190  138.6810  129.5420 C   0  0  0  0  0  0  0  0  0  0  0  0
  129.8220  140.0060  131.6380 C   0  0  0  0  0  0  0  0  0  0  0  0
  128.1740  137.7240  130.4560 C   0  0  0  0  0  0  0  0  0  0  0  0
  129.0710  139.0450  132.5680 C   0  0  0  0  0  0  0  0  0  0  0  0
  128.2450  137.8990  131.9710 C   0  0  0  0  0  0  0  0  0  0  0  0
  7 11  1  0  0  0  0
  9 12  1  0  0  0  0
 10 12  1  0  0  0  0
 11 12  2  0  0  0  0
  4 13  2  0  0  0  0
  8 13  1  0  0  0  0
 11 13  1  0  0  0  0
  8 14  1  0  0  0  0
  7 15  1  0  0  0  0
  5 16  2  0  0  0  0
  8 16  1  0  0  0  0
  9 16  1  0  0  0  0
  3 17  1  0  0  0  0
  7 17  1  0  0  0  0
 10 17  2  0  0  0  0
 14 18  1  0  0  0  0
 15 19  1  0  0  0  0
  9 20  1  0  0  0  0
  6 21  1  0  0  0  0
 18 21  1  0  0  0  0
 19 22  2  0  0  0  0
 19 23  1  0  0  0  0
  3 24  1  0  0  0  0
 22 25  1  0  0  0  0
 23 26  2  0  0  0  0
  1 27  1  0  0  0  0
 25 27  2  0  0  0  0
 26 27  1  0  0  0  0
 24 28  2  0  0  0  0
 24 29  1  0  0  0  0
  2 30  1  0  0  0  0
 28 30  1  0  0  0  0
 29 31  2  0  0  0  0
 30 32  2  0  0  0  0
 31 32  1  0  0  0  0
M  END
$$$$
