8SGE
  PyMOL3.1          3D                             0

 33 35  0  0  0  0  0  0  0  0999 V2000
   28.5790   -6.3070  -19.8830 N   0  0  0  0  0  0  0  0  0  0  0  0
   29.2680   -6.3670  -18.5860 C   0  0  0  0  0  0  0  0  0  0  0  0
   23.7480   -3.2350  -18.4960 O   0  0  0  0  0  0  0  0  0  0  0  0
   28.9350   -5.1480  -17.7240 C   0  0  0  0  0  0  0  0  0  0  0  0
   25.4120   -4.6990  -19.0090 N   0  0  0  0  0  0  0  0  0  0  0  0
   22.0330   -6.8170  -22.7200 O   0  0  0  0  0  0  0  0  0  0  0  0
   27.5460   -4.5990  -17.9430 C   0  0  0  0  0  0  0  0  0  0  0  0
   23.4280   -5.1550  -22.0000 N   0  0  0  0  0  0  0  0  0  0  0  0
   25.5620   -4.9240  -23.6750 O   0  0  0  0  0  0  0  0  0  0  0  0
   26.7160   -5.1750  -18.8550 C   0  0  0  0  0  0  0  0  0  0  0  0
   24.4350   -3.6480  -25.1230 O   0  0  0  0  0  0  0  0  0  0  0  0
   24.9000   -3.5950  -18.3130 C   0  0  0  0  0  0  0  0  0  0  0  0
   28.5520   -6.2380  -22.1420 O   0  0  0  0  0  0  0  0  0  0  0  0
   25.8090   -2.9520  -17.3860 C   0  0  0  0  0  0  0  0  0  0  0  0
   30.4910   -6.4490  -21.0130 O   0  0  0  0  0  0  0  0  0  0  0  0
   27.0500   -3.4630  -17.2080 C   0  0  0  0  0  0  0  0  0  0  0  0
   31.1330   -8.6760  -21.8510 O   0  0  0  0  0  0  0  0  0  0  0  0
   25.2720   -1.6710  -16.8040 C   0  0  0  0  0  0  0  0  0  0  0  0
   24.3760   -1.8890  -15.5760 C   0  0  0  0  0  0  0  0  0  0  0  0
   22.9130   -2.1690  -15.9030 C   0  0  0  0  0  0  0  0  0  0  0  0
   26.3480   -0.6050  -16.6140 C   0  0  0  0  0  0  0  0  0  0  0  0
   24.5320   -5.3300  -19.9200 C   0  0  0  0  0  0  0  0  0  0  0  0
   24.2460   -4.6350  -21.0400 C   0  0  0  0  0  0  0  0  0  0  0  0
   22.8370   -6.4270  -21.8730 C   0  0  0  0  0  0  0  0  0  0  0  0
   23.1780   -7.1610  -20.6710 C   0  0  0  0  0  0  0  0  0  0  0  0
   23.9830   -6.6290  -19.7250 C   0  0  0  0  0  0  0  0  0  0  0  0
   23.2370   -4.4110  -23.2390 C   0  0  0  0  0  0  0  0  0  0  0  0
   24.5250   -4.3630  -24.0270 C   0  0  0  0  0  0  0  0  0  0  0  0
   27.1250   -6.2720  -19.7820 C   0  0  0  0  0  0  0  0  0  0  0  0
   29.1590   -6.3320  -21.1020 C   0  0  0  0  0  0  0  0  0  0  0  0
   31.2280   -6.3410  -22.2640 C   0  0  0  0  0  0  0  0  0  0  0  0
   31.3480   -7.7070  -22.8570 C   0  0  0  0  0  0  0  0  0  0  0  0
   30.2020   -9.6520  -22.2700 C   0  0  0  0  0  0  0  0  0  0  0  0
  1  2  1  0  0  0  0
  2  4  1  0  0  0  0
  4  7  1  0  0  0  0
  5 10  1  0  0  0  0
  7 10  2  0  0  0  0
  3 12  2  0  0  0  0
  5 12  1  0  0  0  0
 12 14  1  0  0  0  0
  7 16  1  0  0  0  0
 14 16  2  0  0  0  0
 14 18  1  0  0  0  0
 18 19  1  0  0  0  0
 19 20  1  0  0  0  0
 18 21  1  0  0  0  0
  5 22  1  0  0  0  0
  8 23  1  0  0  0  0
 22 23  2  0  0  0  0
  6 24  2  0  0  0  0
  8 24  1  0  0  0  0
 24 25  1  0  0  0  0
 22 26  1  0  0  0  0
 25 26  2  0  0  0  0
  8 27  1  0  0  0  0
  9 28  1  0  0  0  0
 11 28  2  0  0  0  0
 27 28  1  0  0  0  0
  1 29  1  0  0  0  0
 10 29  1  0  0  0  0
  1 30  1  0  0  0  0
 13 30  2  0  0  0  0
 15 30  1  0  0  0  0
 15 31  1  0  0  0  0
 17 32  1  0  0  0  0
 31 32  1  0  0  0  0
 17 33  1  0  0  0  0
M  END
$$$$
