6X0P
  PyMOL3.1          3D                             0

 23 25  0  0  0  0  0  0  0  0999 V2000
   18.8602   -2.3535  -24.1870 N   0  0  0  0  0  0  0  0  0  0  0  0
   18.5986   -3.4617  -25.0791 C   0  0  0  0  0  0  0  0  0  0  0  0
   19.3920   -3.5631  -26.3794 C   0  0  0  0  0  0  0  0  0  0  0  0
   20.0674   -2.4459  -26.8460 C   0  0  0  0  0  0  0  0  0  0  0  0
   20.8116   -2.5018  -28.0107 C   0  0  0  0  0  0  0  0  0  0  0  0
   21.5710   -1.2794  -28.5249 C   0  0  0  0  0  0  0  0  0  0  0  0
   22.8275   -1.3270  -29.1114 C   0  0  0  0  0  0  0  0  0  0  0  0
   23.1773   -0.0809  -29.4397 N   0  0  0  0  0  0  0  0  0  0  0  0
   24.4382    0.2645  -30.0904 C   0  0  0  0  0  0  0  0  0  0  0  0
   24.1739    0.9302  -31.4400 C   0  0  0  0  0  0  0  0  0  0  0  0
   23.7761   -0.0445  -32.3553 O   0  0  0  0  0  0  0  0  0  0  0  0
   22.1819    0.7979  -29.0924 C   0  0  0  0  0  0  0  0  0  0  0  0
   21.1621    0.0811  -28.5165 C   0  0  0  0  0  0  0  0  0  0  0  0
   20.0067    0.7649  -28.0646 C   0  0  0  0  0  0  0  0  0  0  0  0
   19.8997    2.1479  -28.1948 C   0  0  0  0  0  0  0  0  0  0  0  0
   20.9345    2.8728  -28.7813 C   0  0  0  0  0  0  0  0  0  0  0  0
   20.8292    4.3919  -28.9331 C   0  0  0  0  0  0  0  0  0  0  0  0
   21.3183    4.7837  -30.2427 N   0  0  0  0  0  0  0  0  0  0  0  0
   22.0710    2.2123  -29.2270 C   0  0  0  0  0  0  0  0  0  0  0  0
   20.8721   -3.6926  -28.7182 C   0  0  0  0  0  0  0  0  0  0  0  0
   20.1977   -4.8100  -28.2471 C   0  0  0  0  0  0  0  0  0  0  0  0
   19.4552   -4.7558  -27.0831 C   0  0  0  0  0  0  0  0  0  0  0  0
   17.5125   -4.5612  -24.6714 S   0  0  0  0  0  0  0  0  0  0  0  0
  1  2  1  0  0  0  0
  2  3  1  0  0  0  0
  3  4  1  0  0  0  0
  4  5  2  0  0  0  0
  5  6  1  0  0  0  0
  6  7  2  0  0  0  0
  7  8  1  0  0  0  0
  8  9  1  0  0  0  0
  9 10  1  0  0  0  0
 10 11  1  0  0  0  0
  8 12  1  0  0  0  0
  6 13  1  0  0  0  0
 12 13  1  0  0  0  0
 13 14  2  0  0  0  0
 14 15  1  0  0  0  0
 15 16  2  0  0  0  0
 16 17  1  0  0  0  0
 17 18  1  0  0  0  0
 12 19  2  0  0  0  0
 16 19  1  0  0  0  0
  5 20  1  0  0  0  0
 20 21  2  0  0  0  0
  3 22  2  0  0  0  0
 21 22  1  0  0  0  0
  2 23  2  0  0  0  0
M  END
$$$$
