6X0P
  PyMOL3.1          3D                             0

 23 25  0  0  0  0  0  0  0  0999 V2000
  -18.9144   31.5690   24.4762 N   0  0  0  0  0  0  0  0  0  0  0  0
  -18.6156   30.5149   25.4186 C   0  0  0  0  0  0  0  0  0  0  0  0
  -19.4002   30.4375   26.7197 C   0  0  0  0  0  0  0  0  0  0  0  0
  -20.0505   31.5591   27.2043 C   0  0  0  0  0  0  0  0  0  0  0  0
  -20.7759   31.4853   28.3858 C   0  0  0  0  0  0  0  0  0  0  0  0
  -21.5323   32.6988   28.9195 C   0  0  0  0  0  0  0  0  0  0  0  0
  -22.7840   32.6220   29.5110 C   0  0  0  0  0  0  0  0  0  0  0  0
  -23.1597   33.8541   29.8488 N   0  0  0  0  0  0  0  0  0  0  0  0
  -24.4161   34.1988   30.5021 C   0  0  0  0  0  0  0  0  0  0  0  0
  -24.4639   33.6211   31.9128 C   0  0  0  0  0  0  0  0  0  0  0  0
  -23.5325   34.2956   32.7151 O   0  0  0  0  0  0  0  0  0  0  0  0
  -22.1870   34.7572   29.4889 C   0  0  0  0  0  0  0  0  0  0  0  0
  -21.1512   34.0659   28.9003 C   0  0  0  0  0  0  0  0  0  0  0  0
  -20.0123   34.7677   28.4371 C   0  0  0  0  0  0  0  0  0  0  0  0
  -19.9434   36.1526   28.5742 C   0  0  0  0  0  0  0  0  0  0  0  0
  -20.9942   36.8497   29.1734 C   0  0  0  0  0  0  0  0  0  0  0  0
  -20.8947   38.3688   29.3169 C   0  0  0  0  0  0  0  0  0  0  0  0
  -20.9797   38.7346   30.7199 N   0  0  0  0  0  0  0  0  0  0  0  0
  -22.1165   36.1688   29.6350 C   0  0  0  0  0  0  0  0  0  0  0  0
  -20.8378   30.2838   29.0734 C   0  0  0  0  0  0  0  0  0  0  0  0
  -20.1702   29.1662   28.5882 C   0  0  0  0  0  0  0  0  0  0  0  0
  -19.4550   29.2370   27.4116 C   0  0  0  0  0  0  0  0  0  0  0  0
  -17.4782   29.4346   25.0888 S   0  0  0  0  0  0  0  0  0  0  0  0
  1  2  1  0  0  0  0
  2  3  1  0  0  0  0
  3  4  1  0  0  0  0
  4  5  2  0  0  0  0
  5  6  1  0  0  0  0
  6  7  2  0  0  0  0
  7  8  1  0  0  0  0
  8  9  1  0  0  0  0
  9 10  1  0  0  0  0
 10 11  1  0  0  0  0
  8 12  1  0  0  0  0
  6 13  1  0  0  0  0
 12 13  1  0  0  0  0
 13 14  2  0  0  0  0
 14 15  1  0  0  0  0
 15 16  2  0  0  0  0
 16 17  1  0  0  0  0
 17 18  1  0  0  0  0
 12 19  2  0  0  0  0
 16 19  1  0  0  0  0
  5 20  1  0  0  0  0
 20 21  2  0  0  0  0
  3 22  2  0  0  0  0
 21 22  1  0  0  0  0
  2 23  2  0  0  0  0
M  END
$$$$
