6X0P
  PyMOL3.1          3D                             0

 23 25  0  0  0  0  0  0  0  0999 V2000
  -17.9368   -0.1003   20.6939 N   0  0  0  0  0  0  0  0  0  0  0  0
  -17.5143   -1.0435   21.6964 C   0  0  0  0  0  0  0  0  0  0  0  0
  -18.2403   -1.0846   23.0300 C   0  0  0  0  0  0  0  0  0  0  0  0
  -19.0573   -0.0224   23.4147 C   0  0  0  0  0  0  0  0  0  0  0  0
  -19.7201   -0.0792   24.6280 C   0  0  0  0  0  0  0  0  0  0  0  0
  -20.6434    1.0487   25.0831 C   0  0  0  0  0  0  0  0  0  0  0  0
  -21.8340    0.8165   25.7514 C   0  0  0  0  0  0  0  0  0  0  0  0
  -22.4014    1.9886   25.9952 N   0  0  0  0  0  0  0  0  0  0  0  0
  -23.6808    2.1288   26.6770 C   0  0  0  0  0  0  0  0  0  0  0  0
  -23.5588    2.9785   27.9357 C   0  0  0  0  0  0  0  0  0  0  0  0
  -22.8047    2.2538   28.8593 O   0  0  0  0  0  0  0  0  0  0  0  0
  -21.6101    3.0045   25.5183 C   0  0  0  0  0  0  0  0  0  0  0  0
  -20.4991    2.4448   24.9244 C   0  0  0  0  0  0  0  0  0  0  0  0
  -19.5150    3.2858   24.3504 C   0  0  0  0  0  0  0  0  0  0  0  0
  -19.6676    4.6714   24.3641 C   0  0  0  0  0  0  0  0  0  0  0  0
  -20.8025    5.2401   24.9519 C   0  0  0  0  0  0  0  0  0  0  0  0
  -20.9875    6.7594   24.9839 C   0  0  0  0  0  0  0  0  0  0  0  0
  -21.6467    7.1196   26.2318 N   0  0  0  0  0  0  0  0  0  0  0  0
  -21.7652    4.4195   25.5292 C   0  0  0  0  0  0  0  0  0  0  0  0
  -19.5760   -1.1904   25.4430 C   0  0  0  0  0  0  0  0  0  0  0  0
  -18.7520   -2.2348   25.0568 C   0  0  0  0  0  0  0  0  0  0  0  0
  -18.0841   -2.1872   23.8471 C   0  0  0  0  0  0  0  0  0  0  0  0
  -16.2996   -2.0460   21.3944 S   0  0  0  0  0  0  0  0  0  0  0  0
  1  2  1  0  0  0  0
  2  3  1  0  0  0  0
  3  4  1  0  0  0  0
  4  5  2  0  0  0  0
  5  6  1  0  0  0  0
  6  7  2  0  0  0  0
  7  8  1  0  0  0  0
  8  9  1  0  0  0  0
  9 10  1  0  0  0  0
 10 11  1  0  0  0  0
  8 12  1  0  0  0  0
  6 13  1  0  0  0  0
 12 13  1  0  0  0  0
 13 14  2  0  0  0  0
 14 15  1  0  0  0  0
 15 16  2  0  0  0  0
 16 17  1  0  0  0  0
 17 18  1  0  0  0  0
 12 19  2  0  0  0  0
 16 19  1  0  0  0  0
  5 20  1  0  0  0  0
 20 21  2  0  0  0  0
  3 22  2  0  0  0  0
 21 22  1  0  0  0  0
  2 23  2  0  0  0  0
M  END
$$$$
