7SXF
  PyMOL3.1          3D                             0

 24 27  0  0  0  0  0  0  0  0999 V2000
  -13.6759  -15.4106   12.0861 N   0  0  0  0  0  0  0  0  0  0  0  0
  -17.0336  -11.0559   15.5813 O   0  0  0  0  0  0  0  0  0  0  0  0
  -14.6743  -15.0147   11.2565 N   0  0  0  0  0  0  0  0  0  0  0  0
  -16.4790  -13.3709   11.5162 N   0  0  0  0  0  0  0  0  0  0  0  0
  -13.7454  -14.7527   13.2514 C   0  0  0  0  0  0  0  0  0  0  0  0
  -15.3870  -14.0618   11.9346 C   0  0  0  0  0  0  0  0  0  0  0  0
  -16.9511  -12.3410   12.2875 C   0  0  0  0  0  0  0  0  0  0  0  0
  -16.5032  -12.1285   13.5568 C   0  0  0  0  0  0  0  0  0  0  0  0
  -17.1526  -11.0926   14.3576 C   0  0  0  0  0  0  0  0  0  0  0  0
  -17.9652  -10.0579   13.6293 C   0  0  0  0  0  0  0  0  0  0  0  0
  -18.8511  -10.6484   12.5411 C   0  0  0  0  0  0  0  0  0  0  0  0
  -19.9035  -11.5602   13.1706 C   0  0  0  0  0  0  0  0  0  0  0  0
  -19.5477   -9.5305   11.7646 C   0  0  0  0  0  0  0  0  0  0  0  0
  -17.9555  -11.4581   11.6011 C   0  0  0  0  0  0  0  0  0  0  0  0
  -15.3708  -12.9215   14.1854 C   0  0  0  0  0  0  0  0  0  0  0  0
  -14.8218  -13.8879   13.1751 C   0  0  0  0  0  0  0  0  0  0  0  0
  -15.1402  -13.6356   16.6266 C   0  0  0  0  0  0  0  0  0  0  0  0
  -15.5758  -14.3245   17.7463 C   0  0  0  0  0  0  0  0  0  0  0  0
  -16.7283  -15.0701   17.6922 C   0  0  0  0  0  0  0  0  0  0  0  0
  -17.4486  -15.1317   16.5212 C   0  0  0  0  0  0  0  0  0  0  0  0
  -17.0157  -14.4436   15.3991 C   0  0  0  0  0  0  0  0  0  0  0  0
  -14.2483  -11.9388   14.5880 C   0  0  0  0  0  0  0  0  0  0  0  0
  -15.8559  -13.6870   15.4401 C   0  0  0  0  0  0  0  0  0  0  0  0
  -13.8122  -11.0328   13.4613 C   0  0  0  0  0  0  0  0  0  0  0  0
  1  3  1  0  0  0  0
  1  5  1  0  0  0  0
  3  6  2  0  0  0  0
  4  6  1  0  0  0  0
  4  7  1  0  0  0  0
  7  8  2  0  0  0  0
  2  9  2  0  0  0  0
  8  9  1  0  0  0  0
  9 10  1  0  0  0  0
 10 11  1  0  0  0  0
 11 12  1  0  0  0  0
 11 13  1  0  0  0  0
  7 14  1  0  0  0  0
 11 14  1  0  0  0  0
  8 15  1  0  0  0  0
  5 16  2  0  0  0  0
  6 16  1  0  0  0  0
 15 16  1  0  0  0  0
 17 18  2  0  0  0  0
 18 19  1  0  0  0  0
 19 20  2  0  0  0  0
 20 21  1  0  0  0  0
 15 22  1  0  0  0  0
 15 23  1  0  0  0  0
 17 23  1  0  0  0  0
 21 23  2  0  0  0  0
 22 24  1  0  0  0  0
M  END
$$$$
