8XFD
  PyMOL3.1          3D                             0

 32 36  0  0  0  0  0  0  0  0999 V2000
   30.2301   -8.7820   31.2248 N   0  0  0  0  0  0  0  0  0  0  0  0
   28.0487   -9.0710   30.2358 C   0  0  0  0  0  0  0  0  0  0  0  0
   29.5507  -10.9522   29.1960 O   0  0  0  0  0  0  0  0  0  0  0  0
   26.8222   -8.5840   29.8679 C   0  0  0  0  0  0  0  0  0  0  0  0
   28.7570  -11.3395   31.4744 N   0  0  0  0  0  0  0  0  0  0  0  0
   25.2948  -14.6611   35.7976 O   0  0  0  0  0  0  0  0  0  0  0  0
   26.5124   -7.2522   30.0950 C   0  0  0  0  0  0  0  0  0  0  0  0
   24.8932  -12.5276   36.3964 N   0  0  0  0  0  0  0  0  0  0  0  0
   27.1502  -11.4308   29.5417 O   0  0  0  0  0  0  0  0  0  0  0  0
   27.4166   -6.4146   30.6801 C   0  0  0  0  0  0  0  0  0  0  0  0
   22.8691  -10.6795   37.2423 N   0  0  0  0  0  0  0  0  0  0  0  0
   28.6962   -6.8885   31.0807 C   0  0  0  0  0  0  0  0  0  0  0  0
   29.0218   -8.2563   30.8513 C   0  0  0  0  0  0  0  0  0  0  0  0
   31.1005   -7.9815   31.8074 C   0  0  0  0  0  0  0  0  0  0  0  0
   30.8702   -6.6368   32.0694 C   0  0  0  0  0  0  0  0  0  0  0  0
   29.6744   -6.0939   31.7118 C   0  0  0  0  0  0  0  0  0  0  0  0
   28.0194  -12.0621   32.4544 C   0  0  0  0  0  0  0  0  0  0  0  0
   28.4618  -12.0298   33.7729 C   0  0  0  0  0  0  0  0  0  0  0  0
   27.6525  -12.5021   34.7924 C   0  0  0  0  0  0  0  0  0  0  0  0
   26.3939  -13.0322   34.5164 C   0  0  0  0  0  0  0  0  0  0  0  0
   25.4883  -13.4720   35.6273 C   0  0  0  0  0  0  0  0  0  0  0  0
   25.0431  -11.0824   36.1878 C   0  0  0  0  0  0  0  0  0  0  0  0
   23.6845  -10.4306   36.0464 C   0  0  0  0  0  0  0  0  0  0  0  0
   23.4647  -10.0945   38.4598 C   0  0  0  0  0  0  0  0  0  0  0  0
   22.5096   -9.0711   39.2042 C   0  0  0  0  0  0  0  0  0  0  0  0
   22.9396   -8.2007   40.3465 C   0  0  0  0  0  0  0  0  0  0  0  0
   22.0233   -9.3522   40.5876 C   0  0  0  0  0  0  0  0  0  0  0  0
   22.6772  -12.1264   37.3867 C   0  0  0  0  0  0  0  0  0  0  0  0
   24.0162  -12.8348   37.5344 C   0  0  0  0  0  0  0  0  0  0  0  0
   25.9862  -13.1193   33.1889 C   0  0  0  0  0  0  0  0  0  0  0  0
   26.7850  -12.6312   32.1680 C   0  0  0  0  0  0  0  0  0  0  0  0
   28.3603  -10.8045   29.9783 S   0  0  0  0  0  0  0  0  0  0  0  0
  2  4  2  0  0  0  0
  4  7  1  0  0  0  0
  7 10  2  0  0  0  0
 10 12  1  0  0  0  0
  1 13  1  0  0  0  0
  2 13  1  0  0  0  0
 12 13  2  0  0  0  0
  1 14  2  0  0  0  0
 14 15  1  0  0  0  0
 12 16  1  0  0  0  0
 15 16  2  0  0  0  0
  5 17  1  0  0  0  0
 17 18  2  0  0  0  0
 18 19  1  0  0  0  0
 19 20  2  0  0  0  0
  6 21  2  0  0  0  0
  8 21  1  0  0  0  0
 20 21  1  0  0  0  0
  8 22  1  0  0  0  0
 11 23  1  0  0  0  0
 22 23  1  0  0  0  0
 11 24  1  0  0  0  0
 24 25  1  0  0  0  0
 25 26  1  0  0  0  0
 25 27  1  0  0  0  0
 26 27  1  0  0  0  0
 11 28  1  0  0  0  0
  8 29  1  0  0  0  0
 28 29  1  0  0  0  0
 20 30  1  0  0  0  0
 17 31  1  0  0  0  0
 30 31  2  0  0  0  0
  2 32  1  0  0  0  0
  3 32  2  0  0  0  0
  5 32  1  0  0  0  0
  9 32  2  0  0  0  0
M  END
$$$$
