8VLS
  PyMOL3.1          3D                             0

 25 27  0  0  0  0  0  0  0  0999 V2000
  154.4870  138.2390  123.7650 C   0  0  0  0  0  0  0  0  0  0  0  0
  153.5420  137.1120  123.9600 N   0  0  0  0  0  0  0  0  0  0  0  0
  152.5780  138.0450  125.8070 O   0  0  0  0  0  0  0  0  0  0  0  0
  156.3050  136.2700  123.2810 S   0  0  0  0  0  0  0  0  0  0  0  0
  154.0140  139.6950  123.9120 C   0  0  0  0  0  0  0  0  0  0  0  0
  152.9500  134.7430  126.9410 N   0  0  0  0  0  0  0  0  0  0  0  0
  152.7860  132.9000  125.1780 O   0  0  0  0  0  0  0  0  0  0  0  0
  154.8750  140.6900  123.7370 C   0  0  0  0  0  0  0  0  0  0  0  0
  156.3480  140.3840  123.3850 C   0  0  0  0  0  0  0  0  0  0  0  0
  156.7540  139.1270  123.2580 C   0  0  0  0  0  0  0  0  0  0  0  0
  155.7600  137.9780  123.4610 C   0  0  0  0  0  0  0  0  0  0  0  0
  157.4950  135.8930  124.5900 C   0  0  0  0  0  0  0  0  0  0  0  0
  158.2080  134.6430  124.2470 C   0  0  0  0  0  0  0  0  0  0  0  0
  152.5950  137.1400  125.0750 C   0  0  0  0  0  0  0  0  0  0  0  0
  151.6050  135.9560  125.2830 C   0  0  0  0  0  0  0  0  0  0  0  0
  151.6990  135.4660  126.7360 C   0  0  0  0  0  0  0  0  0  0  0  0
  153.4570  133.6390  126.1760 C   0  0  0  0  0  0  0  0  0  0  0  0
  155.0320  133.4280  126.7460 C   0  0  0  0  0  0  0  0  0  0  0  0
  155.1490  134.3700  127.7290 C   0  0  0  0  0  0  0  0  0  0  0  0
  153.8910  135.0170  127.7370 C   0  0  0  0  0  0  0  0  0  0  0  0
  156.2080  132.5010  126.4200 C   0  0  0  0  0  0  0  0  0  0  0  0
  157.3570  132.6150  127.1020 C   0  0  0  0  0  0  0  0  0  0  0  0
  157.4930  133.6920  128.2250 C   0  0  0  0  0  0  0  0  0  0  0  0
  156.4660  134.4990  128.5080 C   0  0  0  0  0  0  0  0  0  0  0  0
  150.5160  134.5230  127.0210 C   0  0  0  0  0  0  0  0  0  0  0  0
  1  2  1  0  0  0  0
  1  5  1  0  0  0  0
  5  8  2  0  0  0  0
  8  9  1  0  0  0  0
  9 10  2  0  0  0  0
  1 11  2  0  0  0  0
  4 11  1  0  0  0  0
 10 11  1  0  0  0  0
  4 12  1  0  0  0  0
 12 13  1  0  0  0  0
  2 14  1  0  0  0  0
  3 14  2  0  0  0  0
 14 15  1  0  0  0  0
  6 16  1  0  0  0  0
 15 16  1  0  0  0  0
  6 17  1  0  0  0  0
  7 17  2  0  0  0  0
 17 18  1  0  0  0  0
 18 19  1  0  0  0  0
  6 20  1  0  0  0  0
 19 20  1  0  0  0  0
 18 21  2  0  0  0  0
 21 22  1  0  0  0  0
 22 23  2  0  0  0  0
 19 24  2  0  0  0  0
 23 24  1  0  0  0  0
 16 25  1  0  0  0  0
M  END
$$$$
