8VLS
  PyMOL3.1          3D                             0

 25 27  0  0  0  0  0  0  0  0999 V2000
  148.6750  115.4340  123.7730 C   0  0  0  0  0  0  0  0  0  0  0  0
  147.2270  115.6830  123.9770 N   0  0  0  0  0  0  0  0  0  0  0  0
  147.5600  116.9820  125.8240 O   0  0  0  0  0  0  0  0  0  0  0  0
  147.8840  112.8740  123.2970 S   0  0  0  0  0  0  0  0  0  0  0  0
  149.6960  116.5750  123.9140 C   0  0  0  0  0  0  0  0  0  0  0  0
  144.9170  114.9870  126.9600 N   0  0  0  0  0  0  0  0  0  0  0  0
  143.2580  114.1880  125.1860 O   0  0  0  0  0  0  0  0  0  0  0  0
  150.9890  116.3320  123.7310 C   0  0  0  0  0  0  0  0  0  0  0  0
  151.4630  114.9040  123.3770 C   0  0  0  0  0  0  0  0  0  0  0  0
  150.5810  113.9200  123.2560 C   0  0  0  0  0  0  0  0  0  0  0  0
  149.0890  114.2020  123.4680 C   0  0  0  0  0  0  0  0  0  0  0  0
  148.1870  111.6350  124.5810 C   0  0  0  0  0  0  0  0  0  0  0  0
  147.5030  110.3790  124.2050 C   0  0  0  0  0  0  0  0  0  0  0  0
  146.7820  116.5130  125.0960 C   0  0  0  0  0  0  0  0  0  0  0  0
  145.2610  116.7740  125.3120 C   0  0  0  0  0  0  0  0  0  0  0  0
  144.8920  116.4320  126.7650 C   0  0  0  0  0  0  0  0  0  0  0  0
  144.2280  113.9880  126.1910 C   0  0  0  0  0  0  0  0  0  0  0  0
  144.8430  112.5250  126.7680 C   0  0  0  0  0  0  0  0  0  0  0  0
  145.7070  112.9050  127.7560 C   0  0  0  0  0  0  0  0  0  0  0  0
  145.6240  114.3170  127.7620 C   0  0  0  0  0  0  0  0  0  0  0  0
  144.6450  111.0410  126.4430 C   0  0  0  0  0  0  0  0  0  0  0  0
  145.3220  110.1110  127.1310 C   0  0  0  0  0  0  0  0  0  0  0  0
  146.3100  110.5430  128.2610 C   0  0  0  0  0  0  0  0  0  0  0  0
  146.4810  111.8380  128.5430 C   0  0  0  0  0  0  0  0  0  0  0  0
  143.4770  116.9610  127.0570 C   0  0  0  0  0  0  0  0  0  0  0  0
  1  2  1  0  0  0  0
  1  5  1  0  0  0  0
  5  8  2  0  0  0  0
  8  9  1  0  0  0  0
  9 10  2  0  0  0  0
  1 11  2  0  0  0  0
  4 11  1  0  0  0  0
 10 11  1  0  0  0  0
  4 12  1  0  0  0  0
 12 13  1  0  0  0  0
  2 14  1  0  0  0  0
  3 14  2  0  0  0  0
 14 15  1  0  0  0  0
  6 16  1  0  0  0  0
 15 16  1  0  0  0  0
  6 17  1  0  0  0  0
  7 17  2  0  0  0  0
 17 18  1  0  0  0  0
 18 19  1  0  0  0  0
  6 20  1  0  0  0  0
 19 20  1  0  0  0  0
 18 21  2  0  0  0  0
 21 22  1  0  0  0  0
 22 23  2  0  0  0  0
 19 24  2  0  0  0  0
 23 24  1  0  0  0  0
 16 25  1  0  0  0  0
M  END
$$$$
