8VLS
  PyMOL3.1          3D                             0

 25 27  0  0  0  0  0  0  0  0999 V2000
  115.0050  148.2520  123.7710 C   0  0  0  0  0  0  0  0  0  0  0  0
  116.4540  148.0100  123.9760 N   0  0  0  0  0  0  0  0  0  0  0  0
  116.1260  146.7000  125.8170 O   0  0  0  0  0  0  0  0  0  0  0  0
  115.7800  150.8170  123.2850 S   0  0  0  0  0  0  0  0  0  0  0  0
  113.9900  147.1060  123.9160 C   0  0  0  0  0  0  0  0  0  0  0  0
  118.7650  148.7030  126.9670 N   0  0  0  0  0  0  0  0  0  0  0  0
  120.4270  149.5090  125.2000 O   0  0  0  0  0  0  0  0  0  0  0  0
  112.6960  147.3410  123.7320 C   0  0  0  0  0  0  0  0  0  0  0  0
  112.2130  148.7650  123.3730 C   0  0  0  0  0  0  0  0  0  0  0  0
  113.0900  149.7530  123.2490 C   0  0  0  0  0  0  0  0  0  0  0  0
  114.5840  149.4810  123.4610 C   0  0  0  0  0  0  0  0  0  0  0  0
  115.4920  152.0410  124.5860 C   0  0  0  0  0  0  0  0  0  0  0  0
  116.1760  153.3010  124.2200 C   0  0  0  0  0  0  0  0  0  0  0  0
  116.9020  147.1770  125.0910 C   0  0  0  0  0  0  0  0  0  0  0  0
  118.4240  146.9240  125.3100 C   0  0  0  0  0  0  0  0  0  0  0  0
  118.7870  147.2590  126.7650 C   0  0  0  0  0  0  0  0  0  0  0  0
  119.4520  149.7050  126.2010 C   0  0  0  0  0  0  0  0  0  0  0  0
  118.8310  151.1660  126.7780 C   0  0  0  0  0  0  0  0  0  0  0  0
  117.9660  150.7820  127.7630 C   0  0  0  0  0  0  0  0  0  0  0  0
  118.0520  149.3710  127.7680 C   0  0  0  0  0  0  0  0  0  0  0  0
  119.0260  152.6510  126.4540 C   0  0  0  0  0  0  0  0  0  0  0  0
  118.3440  153.5780  127.1410 C   0  0  0  0  0  0  0  0  0  0  0  0
  117.3540  153.1420  128.2680 C   0  0  0  0  0  0  0  0  0  0  0  0
  117.1860  151.8460  128.5480 C   0  0  0  0  0  0  0  0  0  0  0  0
  120.2010  146.7260  127.0610 C   0  0  0  0  0  0  0  0  0  0  0  0
  1  2  1  0  0  0  0
  1  5  1  0  0  0  0
  5  8  2  0  0  0  0
  8  9  1  0  0  0  0
  9 10  2  0  0  0  0
  1 11  2  0  0  0  0
  4 11  1  0  0  0  0
 10 11  1  0  0  0  0
  4 12  1  0  0  0  0
 12 13  1  0  0  0  0
  2 14  1  0  0  0  0
  3 14  2  0  0  0  0
 14 15  1  0  0  0  0
  6 16  1  0  0  0  0
 15 16  1  0  0  0  0
  6 17  1  0  0  0  0
  7 17  2  0  0  0  0
 17 18  1  0  0  0  0
 18 19  1  0  0  0  0
  6 20  1  0  0  0  0
 19 20  1  0  0  0  0
 18 21  2  0  0  0  0
 21 22  1  0  0  0  0
 22 23  2  0  0  0  0
 19 24  2  0  0  0  0
 23 24  1  0  0  0  0
 16 25  1  0  0  0  0
M  END
$$$$
