8VLS
  PyMOL3.1          3D                             0

 25 27  0  0  0  0  0  0  0  0999 V2000
  154.4640  125.4170  139.9340 C   0  0  0  0  0  0  0  0  0  0  0  0
  153.4970  126.5280  139.7590 N   0  0  0  0  0  0  0  0  0  0  0  0
  152.6720  125.6720  137.8140 O   0  0  0  0  0  0  0  0  0  0  0  0
  156.2650  127.4110  140.3810 S   0  0  0  0  0  0  0  0  0  0  0  0
  154.0090  123.9550  139.7940 C   0  0  0  0  0  0  0  0  0  0  0  0
  152.8880  128.9580  136.7290 N   0  0  0  0  0  0  0  0  0  0  0  0
  152.6130  130.8320  138.4460 O   0  0  0  0  0  0  0  0  0  0  0  0
  154.8880  122.9720  139.9510 C   0  0  0  0  0  0  0  0  0  0  0  0
  156.3640  123.2990  140.2720 C   0  0  0  0  0  0  0  0  0  0  0  0
  156.7550  124.5620  140.3910 C   0  0  0  0  0  0  0  0  0  0  0  0
  155.7400  125.6960  140.2110 C   0  0  0  0  0  0  0  0  0  0  0  0
  157.4680  127.7830  139.0810 C   0  0  0  0  0  0  0  0  0  0  0  0
  158.1640  129.0450  139.4150 C   0  0  0  0  0  0  0  0  0  0  0  0
  152.6140  126.5340  138.5940 C   0  0  0  0  0  0  0  0  0  0  0  0
  151.5930  127.6940  138.3930 C   0  0  0  0  0  0  0  0  0  0  0  0
  151.6670  128.1880  136.9390 C   0  0  0  0  0  0  0  0  0  0  0  0
  153.3420  130.0840  137.4960 C   0  0  0  0  0  0  0  0  0  0  0  0
  154.9400  130.3080  137.0000 C   0  0  0  0  0  0  0  0  0  0  0  0
  155.1200  129.3460  136.0470 C   0  0  0  0  0  0  0  0  0  0  0  0
  153.8740  128.6790  135.9910 C   0  0  0  0  0  0  0  0  0  0  0  0
  156.0820  131.2620  137.3650 C   0  0  0  0  0  0  0  0  0  0  0  0
  157.2650  131.1530  136.7460 C   0  0  0  0  0  0  0  0  0  0  0  0
  157.4750  130.0540  135.6570 C   0  0  0  0  0  0  0  0  0  0  0  0
  156.4780  129.2230  135.3390 C   0  0  0  0  0  0  0  0  0  0  0  0
  150.4490  129.0870  136.6560 C   0  0  0  0  0  0  0  0  0  0  0  0
  1  2  1  0  0  0  0
  1  5  1  0  0  0  0
  5  8  2  0  0  0  0
  8  9  1  0  0  0  0
  9 10  2  0  0  0  0
  1 11  2  0  0  0  0
  4 11  1  0  0  0  0
 10 11  1  0  0  0  0
  4 12  1  0  0  0  0
 12 13  1  0  0  0  0
  2 14  1  0  0  0  0
  3 14  2  0  0  0  0
 14 15  1  0  0  0  0
  6 16  1  0  0  0  0
 15 16  1  0  0  0  0
  6 17  1  0  0  0  0
  7 17  2  0  0  0  0
 17 18  1  0  0  0  0
 18 19  1  0  0  0  0
  6 20  1  0  0  0  0
 19 20  1  0  0  0  0
 18 21  2  0  0  0  0
 21 22  1  0  0  0  0
 22 23  2  0  0  0  0
 19 24  2  0  0  0  0
 23 24  1  0  0  0  0
 16 25  1  0  0  0  0
M  END
$$$$
