8VLS
  PyMOL3.1          3D                             0

 25 27  0  0  0  0  0  0  0  0999 V2000
  137.6210  109.0270  139.9220 C   0  0  0  0  0  0  0  0  0  0  0  0
  138.1450  110.4020  139.7300 N   0  0  0  0  0  0  0  0  0  0  0  0
  136.8510  110.7950  137.8910 O   0  0  0  0  0  0  0  0  0  0  0  0
  140.2230  108.3800  140.4070 S   0  0  0  0  0  0  0  0  0  0  0  0
  136.1170  108.7380  139.7720 C   0  0  0  0  0  0  0  0  0  0  0  0
  139.9030  112.1390  136.7160 N   0  0  0  0  0  0  0  0  0  0  0  0
  141.4330  113.2370  138.4450 O   0  0  0  0  0  0  0  0  0  0  0  0
  135.6620  107.5020  139.9430 C   0  0  0  0  0  0  0  0  0  0  0  0
  136.6410  106.3590  140.2920 C   0  0  0  0  0  0  0  0  0  0  0  0
  137.9380  106.6110  140.4200 C   0  0  0  0  0  0  0  0  0  0  0  0
  138.4640  108.0370  140.2230 C   0  0  0  0  0  0  0  0  0  0  0  0
  141.1200  107.5830  139.0510 C   0  0  0  0  0  0  0  0  0  0  0  0
  142.5690  107.6200  139.3440 C   0  0  0  0  0  0  0  0  0  0  0  0
  137.6530  111.2180  138.6210 C   0  0  0  0  0  0  0  0  0  0  0  0
  138.2030  112.6610  138.4140 C   0  0  0  0  0  0  0  0  0  0  0  0
  138.6410  112.8320  136.9510 C   0  0  0  0  0  0  0  0  0  0  0  0
  141.1180  112.2630  137.4730 C   0  0  0  0  0  0  0  0  0  0  0  0
  142.0790  110.9860  136.9300 C   0  0  0  0  0  0  0  0  0  0  0  0
  141.3110  110.3890  135.9710 C   0  0  0  0  0  0  0  0  0  0  0  0
  140.1250  111.1590  135.9510 C   0  0  0  0  0  0  0  0  0  0  0  0
  143.4710  110.4360  137.2610 C   0  0  0  0  0  0  0  0  0  0  0  0
  143.9370  109.3640  136.6050 C   0  0  0  0  0  0  0  0  0  0  0  0
  143.0620  108.6800  135.5090 C   0  0  0  0  0  0  0  0  0  0  0  0
  141.8480  109.1610  135.2220 C   0  0  0  0  0  0  0  0  0  0  0  0
  138.8230  114.3330  136.6590 C   0  0  0  0  0  0  0  0  0  0  0  0
  1  2  1  0  0  0  0
  1  5  1  0  0  0  0
  5  8  2  0  0  0  0
  8  9  1  0  0  0  0
  9 10  2  0  0  0  0
  1 11  2  0  0  0  0
  4 11  1  0  0  0  0
 10 11  1  0  0  0  0
  4 12  1  0  0  0  0
 12 13  1  0  0  0  0
  2 14  1  0  0  0  0
  3 14  2  0  0  0  0
 14 15  1  0  0  0  0
  6 16  1  0  0  0  0
 15 16  1  0  0  0  0
  6 17  1  0  0  0  0
  7 17  2  0  0  0  0
 17 18  1  0  0  0  0
 18 19  1  0  0  0  0
  6 20  1  0  0  0  0
 19 20  1  0  0  0  0
 18 21  2  0  0  0  0
 21 22  1  0  0  0  0
 22 23  2  0  0  0  0
 19 24  2  0  0  0  0
 23 24  1  0  0  0  0
 16 25  1  0  0  0  0
M  END
$$$$
