8VLS
  PyMOL3.1          3D                             0

 25 27  0  0  0  0  0  0  0  0999 V2000
  114.9560  115.4280  139.9180 C   0  0  0  0  0  0  0  0  0  0  0  0
  116.4060  115.6720  139.7200 N   0  0  0  0  0  0  0  0  0  0  0  0
  116.0830  117.0030  137.8930 O   0  0  0  0  0  0  0  0  0  0  0  0
  115.7260  112.8600  140.4030 S   0  0  0  0  0  0  0  0  0  0  0  0
  113.9420  116.5750  139.7710 C   0  0  0  0  0  0  0  0  0  0  0  0
  118.7960  115.0380  136.7130 N   0  0  0  0  0  0  0  0  0  0  0  0
  120.5190  114.2930  138.4480 O   0  0  0  0  0  0  0  0  0  0  0  0
  112.6470  116.3400  139.9490 C   0  0  0  0  0  0  0  0  0  0  0  0
  112.1630  114.9160  140.3020 C   0  0  0  0  0  0  0  0  0  0  0  0
  113.0390  113.9280  140.4280 C   0  0  0  0  0  0  0  0  0  0  0  0
  114.5330  114.1990  140.2230 C   0  0  0  0  0  0  0  0  0  0  0  0
  115.4830  111.6730  139.0590 C   0  0  0  0  0  0  0  0  0  0  0  0
  116.2140  110.4280  139.3770 C   0  0  0  0  0  0  0  0  0  0  0  0
  116.8570  116.5180  138.6150 C   0  0  0  0  0  0  0  0  0  0  0  0
  118.3780  116.7750  138.4040 C   0  0  0  0  0  0  0  0  0  0  0  0
  118.7460  116.4790  136.9410 C   0  0  0  0  0  0  0  0  0  0  0  0
  119.5200  114.0620  137.4780 C   0  0  0  0  0  0  0  0  0  0  0  0
  118.9060  112.5810  136.9500 C   0  0  0  0  0  0  0  0  0  0  0  0
  118.0050  112.9310  135.9850 C   0  0  0  0  0  0  0  0  0  0  0  0
  118.0680  114.3430  135.9500 C   0  0  0  0  0  0  0  0  0  0  0  0
  119.1360  111.1060  137.2970 C   0  0  0  0  0  0  0  0  0  0  0  0
  118.4490  110.1540  136.6510 C   0  0  0  0  0  0  0  0  0  0  0  0
  117.4180  110.5510  135.5480 C   0  0  0  0  0  0  0  0  0  0  0  0
  117.2190  111.8380  135.2460 C   0  0  0  0  0  0  0  0  0  0  0  0
  120.1280  117.0870  136.6430 C   0  0  0  0  0  0  0  0  0  0  0  0
  1  2  1  0  0  0  0
  1  5  1  0  0  0  0
  5  8  2  0  0  0  0
  8  9  1  0  0  0  0
  9 10  2  0  0  0  0
  1 11  2  0  0  0  0
  4 11  1  0  0  0  0
 10 11  1  0  0  0  0
  4 12  1  0  0  0  0
 12 13  1  0  0  0  0
  2 14  1  0  0  0  0
  3 14  2  0  0  0  0
 14 15  1  0  0  0  0
  6 16  1  0  0  0  0
 15 16  1  0  0  0  0
  6 17  1  0  0  0  0
  7 17  2  0  0  0  0
 17 18  1  0  0  0  0
 18 19  1  0  0  0  0
  6 20  1  0  0  0  0
 19 20  1  0  0  0  0
 18 21  2  0  0  0  0
 21 22  1  0  0  0  0
 22 23  2  0  0  0  0
 19 24  2  0  0  0  0
 23 24  1  0  0  0  0
 16 25  1  0  0  0  0
M  END
$$$$
