8CWL
  PyMOL3.1          3D                             0

 30 34  0  0  0  0  0  0  0  0999 V2000
  120.5190  120.4620  140.1410 C   0  0  0  0  0  0  0  0  0  0  0  0
  119.9400  120.6560  141.3640 N   0  0  0  0  0  0  0  0  0  0  0  0
  119.6590  122.2980  136.1570 O   0  0  0  0  0  0  0  0  0  0  0  0
  120.6040  120.2590  142.4430 C   0  0  0  0  0  0  0  0  0  0  0  0
  122.4010  119.4650  141.1510 N   0  0  0  0  0  0  0  0  0  0  0  0
  116.9680  120.9900  147.8630 O   0  0  0  0  0  0  0  0  0  0  0  0
  121.8500  119.6480  142.3440 C   0  0  0  0  0  0  0  0  0  0  0  0
  118.9710  120.2040  135.5930 N   0  0  0  0  0  0  0  0  0  0  0  0
  121.7370  119.8720  140.0310 C   0  0  0  0  0  0  0  0  0  0  0  0
  119.1370  120.9510  148.7580 N   0  0  0  0  0  0  0  0  0  0  0  0
  122.3270  119.6770  138.7450 C   0  0  0  0  0  0  0  0  0  0  0  0
  121.6530  120.0920  137.6000 C   0  0  0  0  0  0  0  0  0  0  0  0
  120.4000  120.6950  137.7100 C   0  0  0  0  0  0  0  0  0  0  0  0
  119.8260  120.8890  138.9630 C   0  0  0  0  0  0  0  0  0  0  0  0
  119.6650  121.1530  136.4480 C   0  0  0  0  0  0  0  0  0  0  0  0
  118.6550  118.3490  133.3690 C   0  0  0  0  0  0  0  0  0  0  0  0
  119.3480  117.9320  134.6060 C   0  0  0  0  0  0  0  0  0  0  0  0
  118.8880  118.7280  135.8260 C   0  0  0  0  0  0  0  0  0  0  0  0
  118.2350  120.5820  134.3470 C   0  0  0  0  0  0  0  0  0  0  0  0
  118.7510  119.8060  133.1430 C   0  0  0  0  0  0  0  0  0  0  0  0
  118.9080  120.7410  146.3940 C   0  0  0  0  0  0  0  0  0  0  0  0
  118.0610  120.6800  145.2500 C   0  0  0  0  0  0  0  0  0  0  0  0
  118.6140  120.5260  143.9820 C   0  0  0  0  0  0  0  0  0  0  0  0
  119.9970  120.4400  143.8320 C   0  0  0  0  0  0  0  0  0  0  0  0
  120.8230  120.4920  144.9480 C   0  0  0  0  0  0  0  0  0  0  0  0
  120.2580  120.6490  146.2450 C   0  0  0  0  0  0  0  0  0  0  0  0
  121.0800  120.7120  147.4080 C   0  0  0  0  0  0  0  0  0  0  0  0
  120.4550  120.8650  148.6410 C   0  0  0  0  0  0  0  0  0  0  0  0
  118.5390  121.1110  150.0730 C   0  0  0  0  0  0  0  0  0  0  0  0
  118.3530  120.8960  147.6970 C   0  0  0  0  0  0  0  0  0  0  0  0
  1  2  1  0  0  0  0
  2  4  2  0  0  0  0
  4  7  1  0  0  0  0
  5  7  2  0  0  0  0
  1  9  1  0  0  0  0
  5  9  1  0  0  0  0
  9 11  2  0  0  0  0
 11 12  1  0  0  0  0
 12 13  2  0  0  0  0
  1 14  2  0  0  0  0
 13 14  1  0  0  0  0
  3 15  2  0  0  0  0
  8 15  1  0  0  0  0
 13 15  1  0  0  0  0
 16 17  1  0  0  0  0
  8 18  1  0  0  0  0
 17 18  1  0  0  0  0
  8 19  1  0  0  0  0
 16 20  1  0  0  0  0
 19 20  1  0  0  0  0
 21 22  2  0  0  0  0
 22 23  1  0  0  0  0
  4 24  1  0  0  0  0
 23 24  2  0  0  0  0
 24 25  1  0  0  0  0
 21 26  1  0  0  0  0
 25 26  2  0  0  0  0
 26 27  1  0  0  0  0
 10 28  1  0  0  0  0
 27 28  2  0  0  0  0
 10 29  1  0  0  0  0
  6 30  2  0  0  0  0
 10 30  1  0  0  0  0
 21 30  1  0  0  0  0
M  END
$$$$
