8HNL
  PyMOL3.1          3D                             0

 43 46  0  0  0  0  0  0  0  0999 V2000
  116.9520  131.1430   89.5560 C   0  0  0  0  0  0  0  0  0  0  0  0
  113.3440  133.1770   86.8250 N   0  0  0  0  0  0  0  0  0  0  0  0
  113.9370  134.4950   85.1000 O   0  0  0  0  0  0  0  0  0  0  0  0
  116.9750  132.5310   90.1600 C   0  0  0  0  0  0  0  0  0  0  0  0
  109.2630  135.8200   83.4910 N   0  0  0  0  0  0  0  0  0  0  0  0
  110.7740  130.7260   84.1210 O   0  0  0  0  0  0  0  0  0  0  0  0
  115.7680  133.3460   89.7050 C   0  0  0  0  0  0  0  0  0  0  0  0
  107.6690  137.3710   84.1190 N   0  0  0  0  0  0  0  0  0  0  0  0
  110.5070  130.5890   88.4700 O   0  0  0  0  0  0  0  0  0  0  0  0
  115.2560  132.8810   88.3570 C   0  0  0  0  0  0  0  0  0  0  0  0
  108.8970  137.7280   82.2300 N   0  0  0  0  0  0  0  0  0  0  0  0
  110.5820  134.1860   91.3830 O   0  0  0  0  0  0  0  0  0  0  0  0
  114.7180  131.4680   88.4660 C   0  0  0  0  0  0  0  0  0  0  0  0
  111.1320  132.3340   85.6410 N   0  0  0  0  0  0  0  0  0  0  0  0
  115.5330  130.6290   89.4450 C   0  0  0  0  0  0  0  0  0  0  0  0
  109.0070  131.6270   87.1650 N   0  0  0  0  0  0  0  0  0  0  0  0
  114.2070  133.8300   87.7990 C   0  0  0  0  0  0  0  0  0  0  0  0
  113.1920  133.6500   85.5870 C   0  0  0  0  0  0  0  0  0  0  0  0
  112.0180  133.0980   84.7830 C   0  0  0  0  0  0  0  0  0  0  0  0
  111.2650  134.2280   84.0870 C   0  0  0  0  0  0  0  0  0  0  0  0
  110.4830  133.7950   82.8510 C   0  0  0  0  0  0  0  0  0  0  0  0
  109.5680  134.9030   82.3820 C   0  0  0  0  0  0  0  0  0  0  0  0
  108.6190  136.9550   83.2800 C   0  0  0  0  0  0  0  0  0  0  0  0
  110.4750  131.2550   85.1940 C   0  0  0  0  0  0  0  0  0  0  0  0
  109.3400  130.7100   86.0660 C   0  0  0  0  0  0  0  0  0  0  0  0
  108.1200  130.4520   85.1870 C   0  0  0  0  0  0  0  0  0  0  0  0
  107.5450  131.7490   84.7060 C   0  0  0  0  0  0  0  0  0  0  0  0
  107.1280  131.9350   83.3880 C   0  0  0  0  0  0  0  0  0  0  0  0
  106.6080  133.1440   82.9850 C   0  0  0  0  0  0  0  0  0  0  0  0
  106.5060  134.1810   83.8890 C   0  0  0  0  0  0  0  0  0  0  0  0
  106.9260  134.0100   85.1950 C   0  0  0  0  0  0  0  0  0  0  0  0
  107.4540  132.7960   85.6100 C   0  0  0  0  0  0  0  0  0  0  0  0
  107.9020  132.5930   87.0280 C   0  0  0  0  0  0  0  0  0  0  0  0
  109.7510  131.5340   88.2890 C   0  0  0  0  0  0  0  0  0  0  0  0
  109.6480  132.6320   89.3070 C   0  0  0  0  0  0  0  0  0  0  0  0
  110.6810  133.7120   89.0690 C   0  0  0  0  0  0  0  0  0  0  0  0
  110.8490  134.5960   90.2710 C   0  0  0  0  0  0  0  0  0  0  0  0
  111.3450  135.9870   90.0740 C   0  0  0  0  0  0  0  0  0  0  0  0
  112.2470  136.5480   90.9660 C   0  0  0  0  0  0  0  0  0  0  0  0
  112.7070  137.8380   90.7750 C   0  0  0  0  0  0  0  0  0  0  0  0
  112.2700  138.5740   89.7000 C   0  0  0  0  0  0  0  0  0  0  0  0
  111.3750  138.0300   88.8110 C   0  0  0  0  0  0  0  0  0  0  0  0
  110.9110  136.7410   88.9940 C   0  0  0  0  0  0  0  0  0  0  0  0
  1  4  1  0  0  0  0
  4  7  1  0  0  0  0
  7 10  1  0  0  0  0
 10 13  1  0  0  0  0
  1 15  1  0  0  0  0
 13 15  1  0  0  0  0
  2 17  1  0  0  0  0
 10 17  1  0  0  0  0
  2 18  1  0  0  0  0
  3 18  2  0  0  0  0
 14 19  1  0  0  0  0
 18 19  1  0  0  0  0
 19 20  1  0  0  0  0
 20 21  1  0  0  0  0
  5 22  1  0  0  0  0
 21 22  1  0  0  0  0
  5 23  1  0  0  0  0
  8 23  1  0  0  0  0
 11 23  2  0  0  0  0
  6 24  2  0  0  0  0
 14 24  1  0  0  0  0
 16 25  1  0  0  0  0
 24 25  1  0  0  0  0
 25 26  1  0  0  0  0
 26 27  1  0  0  0  0
 27 28  1  0  0  0  0
 28 29  2  0  0  0  0
 29 30  1  0  0  0  0
 30 31  2  0  0  0  0
 27 32  2  0  0  0  0
 31 32  1  0  0  0  0
 16 33  1  0  0  0  0
 32 33  1  0  0  0  0
  9 34  2  0  0  0  0
 16 34  1  0  0  0  0
 34 35  1  0  0  0  0
 35 36  1  0  0  0  0
 12 37  2  0  0  0  0
 36 37  1  0  0  0  0
 37 38  1  0  0  0  0
 38 39  2  0  0  0  0
 39 40  1  0  0  0  0
 40 41  2  0  0  0  0
 41 42  1  0  0  0  0
 38 43  1  0  0  0  0
 42 43  2  0  0  0  0
M  END
$$$$
