7K12
  PyMOL3.1          3D                             0

 18 19  0  0  0  0  0  0  0  0999 V2000
   -9.3910   32.6390   32.8100 C   0  0  0  0  0  0  0  0  0  0  0  0
   -7.1160   25.7470   30.9990 C   0  0  0  0  0  0  0  0  0  0  0  0
   -7.8660   26.7020   30.3440 C   0  0  0  0  0  0  0  0  0  0  0  0
   -7.7770   28.0210   30.7490 C   0  0  0  0  0  0  0  0  0  0  0  0
   -8.0680   30.5490   32.3200 C   0  0  0  0  0  0  0  0  0  0  0  0
   -8.0830   31.8750   32.7090 C   0  0  0  0  0  0  0  0  0  0  0  0
   -6.8980   32.5130   32.9920 C   0  0  0  0  0  0  0  0  0  0  0  0
   -6.2780   26.0620   32.0370 C   0  0  0  0  0  0  0  0  0  0  0  0
   -6.1940   27.3790   32.4410 C   0  0  0  0  0  0  0  0  0  0  0  0
   -6.9350   28.3860   31.8050 C   0  0  0  0  0  0  0  0  0  0  0  0
   -6.8770   29.8440   32.2240 C   0  0  0  0  0  0  0  0  0  0  0  0
   -5.6940   30.5190   32.5250 C   0  0  0  0  0  0  0  0  0  0  0  0
   -5.6970   31.8460   32.9110 C   0  0  0  0  0  0  0  0  0  0  0  0
   -9.3830   33.8560   32.5280 O   0  0  0  0  0  0  0  0  0  0  0  0
  -10.4550   32.0680   33.1650 O   0  0  0  0  0  0  0  0  0  0  0  0
   -6.9320   33.8560   33.3630 O   0  0  0  0  0  0  0  0  0  0  0  0
   -7.1950   24.4470   30.6100 F   0  0  0  0  0  0  0  0  0  0  0  0
   -5.3500   27.6730   33.4820 F   0  0  0  0  0  0  0  0  0  0  0  0
  2  3  2  0  0  0  0
  3  4  1  0  0  0  0
  1  6  1  0  0  0  0
  5  6  1  0  0  0  0
  6  7  2  0  0  0  0
  2  8  1  0  0  0  0
  8  9  2  0  0  0  0
  4 10  2  0  0  0  0
  9 10  1  0  0  0  0
  5 11  2  0  0  0  0
 10 11  1  0  0  0  0
 11 12  1  0  0  0  0
  7 13  1  0  0  0  0
 12 13  2  0  0  0  0
  1 14  2  0  0  0  0
  1 15  1  0  0  0  0
  7 16  1  0  0  0  0
  2 17  1  0  0  0  0
  9 18  1  0  0  0  0
M  END
$$$$
