7UMU
  PyMOL3.1          3D                             0

 22 24  0  0  0  0  0  0  0  0999 V2000
  127.7958  -62.0856   76.4755 C   0  0  0  0  0  0  0  0  0  0  0  0
  127.6777  -63.6046   76.7082 C   0  0  0  0  0  0  0  0  0  0  0  0
  129.0668  -64.2627   76.5577 C   0  0  0  0  0  0  0  0  0  0  0  0
  127.1267  -63.8532   78.1319 C   0  0  0  0  0  0  0  0  0  0  0  0
  126.7482  -64.2523   75.6890 C   0  0  0  0  0  0  0  0  0  0  0  0
  127.2780  -64.7106   74.6436 O   0  0  0  0  0  0  0  0  0  0  0  0
  125.2320  -64.3862   75.8445 C   0  0  0  0  0  0  0  0  0  0  0  0
  124.2876  -65.0272   74.3270 S   0  0  0  0  0  0  0  0  0  0  0  0
  123.9708  -66.8534   74.3610 C   0  0  0  0  0  0  0  0  0  0  0  0
  123.1415  -67.4180   73.4414 N   0  0  0  0  0  0  0  0  0  0  0  0
  122.9090  -68.7762   73.4764 C   0  0  0  0  0  0  0  0  0  0  0  0
  123.5412  -69.5893   74.4853 C   0  0  0  0  0  0  0  0  0  0  0  0
  123.3003  -71.1014   74.5523 C   0  0  0  0  0  0  0  0  0  0  0  0
  124.1989  -71.8912   75.6151 C   0  0  0  0  0  0  0  0  0  0  0  0
  125.0294  -71.0588   76.6287 C   0  0  0  0  0  0  0  0  0  0  0  0
  125.7352  -71.6942   77.7011 C   0  0  0  0  0  0  0  0  0  0  0  0
  126.5003  -70.9126   78.6281 C   0  0  0  0  0  0  0  0  0  0  0  0
  126.5594  -69.5194   78.4863 C   0  0  0  0  0  0  0  0  0  0  0  0
  125.8578  -68.8882   77.4214 C   0  0  0  0  0  0  0  0  0  0  0  0
  125.0898  -69.6701   76.4900 C   0  0  0  0  0  0  0  0  0  0  0  0
  124.3873  -68.9461   75.4100 C   0  0  0  0  0  0  0  0  0  0  0  0
  124.5956  -67.5811   75.3428 N   0  0  0  0  0  0  0  0  0  0  0  0
  1  2  1  0  0  0  0
  2  3  1  0  0  0  0
  2  4  1  0  0  0  0
  2  5  1  0  0  0  0
  5  6  2  0  0  0  0
  5  7  1  0  0  0  0
  7  8  1  0  0  0  0
  8  9  1  0  0  0  0
  9 10  1  0  0  0  0
 10 11  2  0  0  0  0
 11 12  1  0  0  0  0
 12 13  2  0  0  0  0
 13 14  1  0  0  0  0
 14 15  2  0  0  0  0
 15 16  1  0  0  0  0
 16 17  2  0  0  0  0
 17 18  1  0  0  0  0
 18 19  2  0  0  0  0
 15 20  1  0  0  0  0
 19 20  1  0  0  0  0
 12 21  1  0  0  0  0
 20 21  2  0  0  0  0
  9 22  2  0  0  0  0
 21 22  1  0  0  0  0
M  END
$$$$
