7UMU
  PyMOL3.1          3D                             0

 22 24  0  0  0  0  0  0  0  0999 V2000
  150.5567  -28.2597   83.0267 C   0  0  0  0  0  0  0  0  0  0  0  0
  152.0145  -27.7309   83.1063 C   0  0  0  0  0  0  0  0  0  0  0  0
  152.8152  -28.6143   84.0826 C   0  0  0  0  0  0  0  0  0  0  0  0
  152.6565  -27.8120   81.7098 C   0  0  0  0  0  0  0  0  0  0  0  0
  152.0747  -26.2700   83.6009 C   0  0  0  0  0  0  0  0  0  0  0  0
  152.2187  -26.0840   84.8369 O   0  0  0  0  0  0  0  0  0  0  0  0
  151.9729  -25.0301   82.7037 C   0  0  0  0  0  0  0  0  0  0  0  0
  151.8105  -23.3468   83.5995 S   0  0  0  0  0  0  0  0  0  0  0  0
  153.4224  -22.5920   84.1196 C   0  0  0  0  0  0  0  0  0  0  0  0
  153.4555  -21.3282   84.6241 N   0  0  0  0  0  0  0  0  0  0  0  0
  154.6614  -20.7723   85.0083 C   0  0  0  0  0  0  0  0  0  0  0  0
  155.8784  -21.5291   84.8677 C   0  0  0  0  0  0  0  0  0  0  0  0
  157.2369  -20.9434   85.2760 C   0  0  0  0  0  0  0  0  0  0  0  0
  158.4598  -21.9685   85.2133 C   0  0  0  0  0  0  0  0  0  0  0  0
  158.2097  -23.3496   84.5365 C   0  0  0  0  0  0  0  0  0  0  0  0
  159.2822  -24.2671   84.3090 C   0  0  0  0  0  0  0  0  0  0  0  0
  159.0246  -25.5313   83.6817 C   0  0  0  0  0  0  0  0  0  0  0  0
  157.7212  -25.8831   83.2914 C   0  0  0  0  0  0  0  0  0  0  0  0
  156.6567  -24.9714   83.5180 C   0  0  0  0  0  0  0  0  0  0  0  0
  156.9174  -23.7019   84.1403 C   0  0  0  0  0  0  0  0  0  0  0  0
  155.7718  -22.8263   84.3372 C   0  0  0  0  0  0  0  0  0  0  0  0
  154.5492  -23.3515   83.9659 N   0  0  0  0  0  0  0  0  0  0  0  0
  1  2  1  0  0  0  0
  2  3  1  0  0  0  0
  2  4  1  0  0  0  0
  2  5  1  0  0  0  0
  5  6  2  0  0  0  0
  5  7  1  0  0  0  0
  7  8  1  0  0  0  0
  8  9  1  0  0  0  0
  9 10  1  0  0  0  0
 10 11  2  0  0  0  0
 11 12  1  0  0  0  0
 12 13  2  0  0  0  0
 13 14  1  0  0  0  0
 14 15  2  0  0  0  0
 15 16  1  0  0  0  0
 16 17  2  0  0  0  0
 17 18  1  0  0  0  0
 18 19  2  0  0  0  0
 15 20  1  0  0  0  0
 19 20  1  0  0  0  0
 12 21  1  0  0  0  0
 20 21  2  0  0  0  0
  9 22  2  0  0  0  0
 21 22  1  0  0  0  0
M  END
$$$$
