7UMU
  PyMOL3.1          3D                             0

 22 24  0  0  0  0  0  0  0  0999 V2000
  129.8898  -12.7316   98.2125 C   0  0  0  0  0  0  0  0  0  0  0  0
  129.6342  -12.5056   96.7035 C   0  0  0  0  0  0  0  0  0  0  0  0
  130.9540  -12.1326   95.9879 C   0  0  0  0  0  0  0  0  0  0  0  0
  129.0701  -13.7945   96.0972 C   0  0  0  0  0  0  0  0  0  0  0  0
  128.6503  -11.3780   96.4766 C   0  0  0  0  0  0  0  0  0  0  0  0
  129.0921  -10.2028   96.5649 O   0  0  0  0  0  0  0  0  0  0  0  0
  127.1748  -11.5566   96.1575 C   0  0  0  0  0  0  0  0  0  0  0  0
  126.1311   -9.9812   96.2726 S   0  0  0  0  0  0  0  0  0  0  0  0
  125.9775   -9.0774   94.6783 C   0  0  0  0  0  0  0  0  0  0  0  0
  125.1008   -8.0455   94.5648 N   0  0  0  0  0  0  0  0  0  0  0  0
  124.9850   -7.3808   93.3624 C   0  0  0  0  0  0  0  0  0  0  0  0
  125.7899   -7.7810   92.2360 C   0  0  0  0  0  0  0  0  0  0  0  0
  125.6798   -7.0610   90.8913 C   0  0  0  0  0  0  0  0  0  0  0  0
  126.6381   -7.6102   89.7353 C   0  0  0  0  0  0  0  0  0  0  0  0
  127.5694   -8.8027   90.0671 C   0  0  0  0  0  0  0  0  0  0  0  0
  128.4467   -9.3468   89.0777 C   0  0  0  0  0  0  0  0  0  0  0  0
  129.3043  -10.4500   89.4042 C   0  0  0  0  0  0  0  0  0  0  0  0
  129.2857  -11.0023   90.6953 C   0  0  0  0  0  0  0  0  0  0  0  0
  128.4144  -10.4609   91.6801 C   0  0  0  0  0  0  0  0  0  0  0  0
  127.5532   -9.3558   91.3524 C   0  0  0  0  0  0  0  0  0  0  0  0
  126.6782   -8.8531   92.4197 C   0  0  0  0  0  0  0  0  0  0  0  0
  126.7669   -9.4983   93.6398 N   0  0  0  0  0  0  0  0  0  0  0  0
  1  2  1  0  0  0  0
  2  3  1  0  0  0  0
  2  4  1  0  0  0  0
  2  5  1  0  0  0  0
  5  6  2  0  0  0  0
  5  7  1  0  0  0  0
  7  8  1  0  0  0  0
  8  9  1  0  0  0  0
  9 10  1  0  0  0  0
 10 11  2  0  0  0  0
 11 12  1  0  0  0  0
 12 13  2  0  0  0  0
 13 14  1  0  0  0  0
 14 15  2  0  0  0  0
 15 16  1  0  0  0  0
 16 17  2  0  0  0  0
 17 18  1  0  0  0  0
 18 19  2  0  0  0  0
 15 20  1  0  0  0  0
 19 20  1  0  0  0  0
 12 21  1  0  0  0  0
 20 21  2  0  0  0  0
  9 22  2  0  0  0  0
 21 22  1  0  0  0  0
M  END
$$$$
