7UMU
  PyMOL3.1          3D                             0

 22 24  0  0  0  0  0  0  0  0999 V2000
  150.4356  -33.4094  127.2960 C   0  0  0  0  0  0  0  0  0  0  0  0
  151.5973  -33.4186  128.3262 C   0  0  0  0  0  0  0  0  0  0  0  0
  152.9526  -33.4457  127.5720 C   0  0  0  0  0  0  0  0  0  0  0  0
  151.5136  -32.1324  129.1868 C   0  0  0  0  0  0  0  0  0  0  0  0
  151.5232  -34.6624  129.2460 C   0  0  0  0  0  0  0  0  0  0  0  0
  151.7874  -35.7791  128.7262 O   0  0  0  0  0  0  0  0  0  0  0  0
  151.1414  -34.6406  130.7357 C   0  0  0  0  0  0  0  0  0  0  0  0
  150.9515  -36.3376  131.5991 S   0  0  0  0  0  0  0  0  0  0  0  0
  152.5095  -36.9235  132.3484 C   0  0  0  0  0  0  0  0  0  0  0  0
  152.4971  -37.9046  133.2871 N   0  0  0  0  0  0  0  0  0  0  0  0
  153.6875  -38.3273  133.8450 C   0  0  0  0  0  0  0  0  0  0  0  0
  154.9267  -37.7192  133.4290 C   0  0  0  0  0  0  0  0  0  0  0  0
  156.2747  -38.1417  134.0173 C   0  0  0  0  0  0  0  0  0  0  0  0
  157.5234  -37.7509  133.1098 C   0  0  0  0  0  0  0  0  0  0  0  0
  157.3542  -36.4823  132.2394 C   0  0  0  0  0  0  0  0  0  0  0  0
  158.4827  -35.7826  131.7283 C   0  0  0  0  0  0  0  0  0  0  0  0
  158.2913  -34.6095  130.9322 C   0  0  0  0  0  0  0  0  0  0  0  0
  157.0014  -34.1460  130.6389 C   0  0  0  0  0  0  0  0  0  0  0  0
  155.8748  -34.8475  131.1477 C   0  0  0  0  0  0  0  0  0  0  0  0
  156.0667  -36.0206  131.9554 C   0  0  0  0  0  0  0  0  0  0  0  0
  154.8654  -36.7069  132.4543 C   0  0  0  0  0  0  0  0  0  0  0  0
  153.6571  -36.3133  131.9220 N   0  0  0  0  0  0  0  0  0  0  0  0
  1  2  1  0  0  0  0
  2  3  1  0  0  0  0
  2  4  1  0  0  0  0
  2  5  1  0  0  0  0
  5  6  2  0  0  0  0
  5  7  1  0  0  0  0
  7  8  1  0  0  0  0
  8  9  1  0  0  0  0
  9 10  1  0  0  0  0
 10 11  2  0  0  0  0
 11 12  1  0  0  0  0
 12 13  2  0  0  0  0
 13 14  1  0  0  0  0
 14 15  2  0  0  0  0
 15 16  1  0  0  0  0
 16 17  2  0  0  0  0
 17 18  1  0  0  0  0
 18 19  2  0  0  0  0
 15 20  1  0  0  0  0
 19 20  1  0  0  0  0
 12 21  1  0  0  0  0
 20 21  2  0  0  0  0
  9 22  2  0  0  0  0
 21 22  1  0  0  0  0
M  END
$$$$
