8BHG
  PyMOL3.1          3D                             0

 46 49  0  0  0  0  0  0  0  0999 V2000
   20.1875   44.2629  239.8793 N   0  0  0  0  0  0  0  0  0  0  0  0
   26.0315   45.3560  237.4162 C   0  0  0  0  0  0  0  0  0  0  0  0
   24.2091   43.9967  238.4719 O   0  0  0  0  0  0  0  0  0  0  0  0
   25.5022   44.6955  238.6663 C   0  0  0  0  0  0  0  0  0  0  0  0
   20.2953   42.4842  237.5031 N   0  0  0  0  0  0  0  0  0  0  0  0
   24.3648   43.7514  236.2284 O   0  0  0  0  0  0  0  0  0  0  0  0
   25.2546   45.7140  239.7638 C   0  0  0  0  0  0  0  0  0  0  0  0
   22.2677   41.7390  236.7818 N   0  0  0  0  0  0  0  0  0  0  0  0
   18.8246   43.0782  241.2047 O   0  0  0  0  0  0  0  0  0  0  0  0
   26.4176   43.5876  239.1283 C   0  0  0  0  0  0  0  0  0  0  0  0
   23.7700   43.6187  237.2669 C   0  0  0  0  0  0  0  0  0  0  0  0
   22.4233   42.9959  237.3453 C   0  0  0  0  0  0  0  0  0  0  0  0
   21.2164   43.4754  237.8221 C   0  0  0  0  0  0  0  0  0  0  0  0
   20.7190   44.6714  238.5737 C   0  0  0  0  0  0  0  0  0  0  0  0
   21.8138   45.6947  238.9496 C   0  0  0  0  0  0  0  0  0  0  0  0
   21.4980   46.0957  240.3823 C   0  0  0  0  0  0  0  0  0  0  0  0
   20.9734   44.8192  240.9813 C   0  0  0  0  0  0  0  0  0  0  0  0
   19.1304   43.4557  240.0860 C   0  0  0  0  0  0  0  0  0  0  0  0
   18.3351   43.0129  238.9142 C   0  0  0  0  0  0  0  0  0  0  0  0
   18.8834   42.5469  237.7004 C   0  0  0  0  0  0  0  0  0  0  0  0
   20.9911   41.4738  236.8960 C   0  0  0  0  0  0  0  0  0  0  0  0
   18.0645   42.1148  236.6636 C   0  0  0  0  0  0  0  0  0  0  0  0
   16.6893   42.1357  236.8190 C   0  0  0  0  0  0  0  0  0  0  0  0
   16.1219   42.5917  237.9951 C   0  0  0  0  0  0  0  0  0  0  0  0
   16.9372   43.0274  239.0253 C   0  0  0  0  0  0  0  0  0  0  0  0
   16.0867   43.6575  240.5978 Br  0  0  0  0  0  0  0  0  0  0  0  0
   26.8775   46.0051  237.6374 H   0  0  0  0  0  0  0  0  0  0  0  0
   25.2682   45.9660  236.9354 H   0  0  0  0  0  0  0  0  0  0  0  0
   26.3668   44.6183  236.6886 H   0  0  0  0  0  0  0  0  0  0  0  0
   24.2833   45.6029  240.2434 H   0  0  0  0  0  0  0  0  0  0  0  0
   25.2866   46.7438  239.4110 H   0  0  0  0  0  0  0  0  0  0  0  0
   25.9833   45.6626  240.5715 H   0  0  0  0  0  0  0  0  0  0  0  0
   26.6071   42.8669  238.3342 H   0  0  0  0  0  0  0  0  0  0  0  0
   27.3833   43.9739  239.4512 H   0  0  0  0  0  0  0  0  0  0  0  0
   25.9919   43.0395  239.9674 H   0  0  0  0  0  0  0  0  0  0  0  0
   19.9610   45.1711  237.9723 H   0  0  0  0  0  0  0  0  0  0  0  0
   21.8153   46.5842  238.3214 H   0  0  0  0  0  0  0  0  0  0  0  0
   22.8240   45.2902  238.9060 H   0  0  0  0  0  0  0  0  0  0  0  0
   22.3720   46.4655  240.9164 H   0  0  0  0  0  0  0  0  0  0  0  0
   20.7679   46.9016  240.4407 H   0  0  0  0  0  0  0  0  0  0  0  0
   20.3515   44.9674  241.8629 H   0  0  0  0  0  0  0  0  0  0  0  0
   21.7519   44.1232  241.2903 H   0  0  0  0  0  0  0  0  0  0  0  0
   20.5275   40.5519  236.5479 H   0  0  0  0  0  0  0  0  0  0  0  0
   18.4898   41.7584  235.7266 H   0  0  0  0  0  0  0  0  0  0  0  0
   16.0466   41.7909  236.0104 H   0  0  0  0  0  0  0  0  0  0  0  0
   15.0397   42.6101  238.1153 H   0  0  0  0  0  0  0  0  0  0  0  0
  2  4  1  0  0  0  0
  3  4  1  0  0  0  0
  4  7  1  0  0  0  0
  4 10  1  0  0  0  0
  3 11  1  0  0  0  0
  6 11  2  0  0  0  0
  8 12  1  0  0  0  0
 11 12  1  0  0  0  0
  5 13  1  0  0  0  0
 12 13  2  0  0  0  0
  1 14  1  0  0  0  0
 13 14  1  0  0  0  0
 14 15  1  0  0  0  0
 15 16  1  0  0  0  0
  1 17  1  0  0  0  0
 16 17  1  0  0  0  0
  1 18  1  0  0  0  0
  9 18  2  0  0  0  0
 18 19  1  0  0  0  0
  5 20  1  0  0  0  0
 19 20  2  0  0  0  0
  5 21  1  0  0  0  0
  8 21  2  0  0  0  0
 20 22  1  0  0  0  0
 22 23  2  0  0  0  0
 23 24  1  0  0  0  0
 19 25  1  0  0  0  0
 24 25  2  0  0  0  0
 25 26  1  0  0  0  0
  2 27  1  0  0  0  0
  2 28  1  0  0  0  0
  2 29  1  0  0  0  0
  7 30  1  0  0  0  0
  7 31  1  0  0  0  0
  7 32  1  0  0  0  0
 10 33  1  0  0  0  0
 10 34  1  0  0  0  0
 10 35  1  0  0  0  0
 14 36  1  0  0  0  0
 15 37  1  0  0  0  0
 15 38  1  0  0  0  0
 16 39  1  0  0  0  0
 16 40  1  0  0  0  0
 17 41  1  0  0  0  0
 17 42  1  0  0  0  0
 21 43  1  0  0  0  0
 22 44  1  0  0  0  0
 23 45  1  0  0  0  0
 24 46  1  0  0  0  0
M  END
$$$$
