8BHG
  PyMOL3.1          3D                             0

 46 49  0  0  0  0  0  0  0  0999 V2000
   40.8066   -3.6513  237.1473 N   0  0  0  0  0  0  0  0  0  0  0  0
   37.3048   -7.5589  235.4904 C   0  0  0  0  0  0  0  0  0  0  0  0
   37.4202   -5.3233  234.7266 O   0  0  0  0  0  0  0  0  0  0  0  0
   36.5271   -6.5081  234.7354 C   0  0  0  0  0  0  0  0  0  0  0  0
   39.7304   -1.7274  235.0145 N   0  0  0  0  0  0  0  0  0  0  0  0
   35.7702   -3.8047  234.5995 O   0  0  0  0  0  0  0  0  0  0  0  0
   35.1859   -6.2354  235.3891 C   0  0  0  0  0  0  0  0  0  0  0  0
   37.6513   -1.8004  234.2305 N   0  0  0  0  0  0  0  0  0  0  0  0
   40.9731   -2.0442  238.6958 O   0  0  0  0  0  0  0  0  0  0  0  0
   36.3569   -6.9172  233.2955 C   0  0  0  0  0  0  0  0  0  0  0  0
   36.9402   -4.0806  234.6810 C   0  0  0  0  0  0  0  0  0  0  0  0
   37.9966   -3.0388  234.7460 C   0  0  0  0  0  0  0  0  0  0  0  0
   39.2856   -3.0113  235.2362 C   0  0  0  0  0  0  0  0  0  0  0  0
   40.2346   -4.0190  235.8550 C   0  0  0  0  0  0  0  0  0  0  0  0
   39.6152   -5.3910  236.1370 C   0  0  0  0  0  0  0  0  0  0  0  0
   40.5808   -5.9989  237.1327 C   0  0  0  0  0  0  0  0  0  0  0  0
   41.0052   -4.8275  238.0134 C   0  0  0  0  0  0  0  0  0  0  0  0
   41.1226   -2.4092  237.5453 C   0  0  0  0  0  0  0  0  0  0  0  0
   41.6646   -1.4952  236.5405 C   0  0  0  0  0  0  0  0  0  0  0  0
   41.0194   -1.1762  235.3297 C   0  0  0  0  0  0  0  0  0  0  0  0
   38.7061   -1.0481  234.4097 C   0  0  0  0  0  0  0  0  0  0  0  0
   41.5799   -0.2754  234.4352 C   0  0  0  0  0  0  0  0  0  0  0  0
   42.7881    0.3312  234.7366 C   0  0  0  0  0  0  0  0  0  0  0  0
   43.4474    0.0357  235.9164 C   0  0  0  0  0  0  0  0  0  0  0  0
   42.8918   -0.8708  236.8018 C   0  0  0  0  0  0  0  0  0  0  0  0
   43.8621   -1.2539  238.3849 Br  0  0  0  0  0  0  0  0  0  0  0  0
   37.4582   -7.2699  236.5291 H   0  0  0  0  0  0  0  0  0  0  0  0
   38.2864   -7.7214  235.0477 H   0  0  0  0  0  0  0  0  0  0  0  0
   36.7838   -8.5152  235.4906 H   0  0  0  0  0  0  0  0  0  0  0  0
   35.2635   -5.6469  236.3021 H   0  0  0  0  0  0  0  0  0  0  0  0
   34.6534   -7.1417  235.6739 H   0  0  0  0  0  0  0  0  0  0  0  0
   34.4983   -5.6855  234.7483 H   0  0  0  0  0  0  0  0  0  0  0  0
   36.1590   -6.0586  232.6555 H   0  0  0  0  0  0  0  0  0  0  0  0
   37.2490   -7.4086  232.9102 H   0  0  0  0  0  0  0  0  0  0  0  0
   35.5267   -7.6109  233.1713 H   0  0  0  0  0  0  0  0  0  0  0  0
   41.0560   -4.0980  235.1443 H   0  0  0  0  0  0  0  0  0  0  0  0
   39.5375   -6.0323  235.2603 H   0  0  0  0  0  0  0  0  0  0  0  0
   38.6173   -5.3474  236.5710 H   0  0  0  0  0  0  0  0  0  0  0  0
   40.1226   -6.7937  237.7195 H   0  0  0  0  0  0  0  0  0  0  0  0
   41.4374   -6.4632  236.6462 H   0  0  0  0  0  0  0  0  0  0  0  0
   42.0413   -4.8832  238.3439 H   0  0  0  0  0  0  0  0  0  0  0  0
   40.4159   -4.7305  238.9240 H   0  0  0  0  0  0  0  0  0  0  0  0
   38.7687   -0.0018  234.1144 H   0  0  0  0  0  0  0  0  0  0  0  0
   41.0827   -0.0368  233.4961 H   0  0  0  0  0  0  0  0  0  0  0  0
   43.2246    1.0465  234.0412 H   0  0  0  0  0  0  0  0  0  0  0  0
   44.3985    0.5110  236.1519 H   0  0  0  0  0  0  0  0  0  0  0  0
  2  4  1  0  0  0  0
  3  4  1  0  0  0  0
  4  7  1  0  0  0  0
  4 10  1  0  0  0  0
  3 11  1  0  0  0  0
  6 11  2  0  0  0  0
  8 12  1  0  0  0  0
 11 12  1  0  0  0  0
  5 13  1  0  0  0  0
 12 13  2  0  0  0  0
  1 14  1  0  0  0  0
 13 14  1  0  0  0  0
 14 15  1  0  0  0  0
 15 16  1  0  0  0  0
  1 17  1  0  0  0  0
 16 17  1  0  0  0  0
  1 18  1  0  0  0  0
  9 18  2  0  0  0  0
 18 19  1  0  0  0  0
  5 20  1  0  0  0  0
 19 20  2  0  0  0  0
  5 21  1  0  0  0  0
  8 21  2  0  0  0  0
 20 22  1  0  0  0  0
 22 23  2  0  0  0  0
 23 24  1  0  0  0  0
 19 25  1  0  0  0  0
 24 25  2  0  0  0  0
 25 26  1  0  0  0  0
  2 27  1  0  0  0  0
  2 28  1  0  0  0  0
  2 29  1  0  0  0  0
  7 30  1  0  0  0  0
  7 31  1  0  0  0  0
  7 32  1  0  0  0  0
 10 33  1  0  0  0  0
 10 34  1  0  0  0  0
 10 35  1  0  0  0  0
 14 36  1  0  0  0  0
 15 37  1  0  0  0  0
 15 38  1  0  0  0  0
 16 39  1  0  0  0  0
 16 40  1  0  0  0  0
 17 41  1  0  0  0  0
 17 42  1  0  0  0  0
 21 43  1  0  0  0  0
 22 44  1  0  0  0  0
 23 45  1  0  0  0  0
 24 46  1  0  0  0  0
M  END
$$$$
