8BHG
  PyMOL3.1          3D                             0

 46 49  0  0  0  0  0  0  0  0999 V2000
    8.4999   -6.3566  236.8056 N   0  0  0  0  0  0  0  0  0  0  0  0
    3.3605   -3.6639  234.4435 C   0  0  0  0  0  0  0  0  0  0  0  0
    5.5612   -3.6093  235.6262 O   0  0  0  0  0  0  0  0  0  0  0  0
    4.0838   -3.5561  235.7649 C   0  0  0  0  0  0  0  0  0  0  0  0
    9.6399   -4.5475  234.7474 N   0  0  0  0  0  0  0  0  0  0  0  0
    5.6614   -3.0419  233.4322 O   0  0  0  0  0  0  0  0  0  0  0  0
    3.7094   -4.6928  236.6983 C   0  0  0  0  0  0  0  0  0  0  0  0
    8.5277   -2.6936  234.2051 N   0  0  0  0  0  0  0  0  0  0  0  0
   10.1831   -6.3055  238.2867 O   0  0  0  0  0  0  0  0  0  0  0  0
    3.7904   -2.2261  236.4055 C   0  0  0  0  0  0  0  0  0  0  0  0
    6.1816   -3.3893  234.4620 C   0  0  0  0  0  0  0  0  0  0  0  0
    7.6303   -3.6835  234.5732 C   0  0  0  0  0  0  0  0  0  0  0  0
    8.2938   -4.8419  234.9305 C   0  0  0  0  0  0  0  0  0  0  0  0
    7.9408   -6.1986  235.4578 C   0  0  0  0  0  0  0  0  0  0  0  0
    6.4307   -6.4390  235.6760 C   0  0  0  0  0  0  0  0  0  0  0  0
    6.3417   -7.1552  237.0161 C   0  0  0  0  0  0  0  0  0  0  0  0
    7.4489   -6.5182  237.8122 C   0  0  0  0  0  0  0  0  0  0  0  0
    9.8074   -6.3291  237.1262 C   0  0  0  0  0  0  0  0  0  0  0  0
   10.7979   -6.3137  236.0288 C   0  0  0  0  0  0  0  0  0  0  0  0
   10.7305   -5.4525  234.9142 C   0  0  0  0  0  0  0  0  0  0  0  0
    9.7079   -3.2483  234.3217 C   0  0  0  0  0  0  0  0  0  0  0  0
   11.7247   -5.4598  233.9423 C   0  0  0  0  0  0  0  0  0  0  0  0
   12.7975   -6.3259  234.0628 C   0  0  0  0  0  0  0  0  0  0  0  0
   12.8854   -7.1905  235.1391 C   0  0  0  0  0  0  0  0  0  0  0  0
   11.8945   -7.1840  236.1054 C   0  0  0  0  0  0  0  0  0  0  0  0
   12.0694   -8.4140  237.5375 Br  0  0  0  0  0  0  0  0  0  0  0  0
    3.7274   -4.5050  233.8572 H   0  0  0  0  0  0  0  0  0  0  0  0
    3.4927   -2.7647  233.8436 H   0  0  0  0  0  0  0  0  0  0  0  0
    2.2905   -3.8070  234.5868 H   0  0  0  0  0  0  0  0  0  0  0  0
    2.7562   -4.5402  237.2024 H   0  0  0  0  0  0  0  0  0  0  0  0
    4.4349   -4.8531  237.4946 H   0  0  0  0  0  0  0  0  0  0  0  0
    3.6184   -5.6531  236.1928 H   0  0  0  0  0  0  0  0  0  0  0  0
    4.3716   -2.0824  237.3152 H   0  0  0  0  0  0  0  0  0  0  0  0
    4.0257   -1.3988  235.7376 H   0  0  0  0  0  0  0  0  0  0  0  0
    2.7394   -2.1345  236.6757 H   0  0  0  0  0  0  0  0  0  0  0  0
    8.3118   -6.9551  234.7678 H   0  0  0  0  0  0  0  0  0  0  0  0
    5.9705   -7.0585  234.9077 H   0  0  0  0  0  0  0  0  0  0  0  0
    5.8434   -5.5230  235.7199 H   0  0  0  0  0  0  0  0  0  0  0  0
    5.3722   -7.0285  237.4955 H   0  0  0  0  0  0  0  0  0  0  0  0
    6.4747   -8.2323  236.9254 H   0  0  0  0  0  0  0  0  0  0  0  0
    7.8013   -7.1265  238.6439 H   0  0  0  0  0  0  0  0  0  0  0  0
    7.1821   -5.5572  238.2494 H   0  0  0  0  0  0  0  0  0  0  0  0
   10.6447   -2.7369  234.1051 H   0  0  0  0  0  0  0  0  0  0  0  0
   11.6725   -4.7917  233.0839 H   0  0  0  0  0  0  0  0  0  0  0  0
   13.5801   -6.3289  233.3056 H   0  0  0  0  0  0  0  0  0  0  0  0
   13.7277   -7.8747  235.2306 H   0  0  0  0  0  0  0  0  0  0  0  0
  2  4  1  0  0  0  0
  3  4  1  0  0  0  0
  4  7  1  0  0  0  0
  4 10  1  0  0  0  0
  3 11  1  0  0  0  0
  6 11  2  0  0  0  0
  8 12  1  0  0  0  0
 11 12  1  0  0  0  0
  5 13  1  0  0  0  0
 12 13  2  0  0  0  0
  1 14  1  0  0  0  0
 13 14  1  0  0  0  0
 14 15  1  0  0  0  0
 15 16  1  0  0  0  0
  1 17  1  0  0  0  0
 16 17  1  0  0  0  0
  1 18  1  0  0  0  0
  9 18  2  0  0  0  0
 18 19  1  0  0  0  0
  5 20  1  0  0  0  0
 19 20  2  0  0  0  0
  5 21  1  0  0  0  0
  8 21  2  0  0  0  0
 20 22  1  0  0  0  0
 22 23  2  0  0  0  0
 23 24  1  0  0  0  0
 19 25  1  0  0  0  0
 24 25  2  0  0  0  0
 25 26  1  0  0  0  0
  2 27  1  0  0  0  0
  2 28  1  0  0  0  0
  2 29  1  0  0  0  0
  7 30  1  0  0  0  0
  7 31  1  0  0  0  0
  7 32  1  0  0  0  0
 10 33  1  0  0  0  0
 10 34  1  0  0  0  0
 10 35  1  0  0  0  0
 14 36  1  0  0  0  0
 15 37  1  0  0  0  0
 15 38  1  0  0  0  0
 16 39  1  0  0  0  0
 16 40  1  0  0  0  0
 17 41  1  0  0  0  0
 17 42  1  0  0  0  0
 21 43  1  0  0  0  0
 22 44  1  0  0  0  0
 23 45  1  0  0  0  0
 24 46  1  0  0  0  0
M  END
$$$$
