8BHG
  PyMOL3.1          3D                             0

 46 49  0  0  0  0  0  0  0  0999 V2000
   -3.8184   23.5319  238.4390 N   0  0  0  0  0  0  0  0  0  0  0  0
   -3.2922   28.5619  238.5494 C   0  0  0  0  0  0  0  0  0  0  0  0
   -2.0119   27.0946  237.2007 O   0  0  0  0  0  0  0  0  0  0  0  0
   -2.3078   28.5342  237.3995 C   0  0  0  0  0  0  0  0  0  0  0  0
   -1.8789   22.9336  236.2584 N   0  0  0  0  0  0  0  0  0  0  0  0
   -1.6678   27.1842  234.9581 O   0  0  0  0  0  0  0  0  0  0  0  0
   -0.9958   29.1946  237.7644 C   0  0  0  0  0  0  0  0  0  0  0  0
   -0.4429   24.5194  235.6339 N   0  0  0  0  0  0  0  0  0  0  0  0
   -3.2067   21.9415  239.8959 O   0  0  0  0  0  0  0  0  0  0  0  0
   -2.9005   29.1684  236.1658 C   0  0  0  0  0  0  0  0  0  0  0  0
   -1.7557   26.5757  235.9943 C   0  0  0  0  0  0  0  0  0  0  0  0
   -1.6195   25.1038  236.0764 C   0  0  0  0  0  0  0  0  0  0  0  0
   -2.5251   24.1432  236.4839 C   0  0  0  0  0  0  0  0  0  0  0  0
   -3.8933   24.1099  237.0916 C   0  0  0  0  0  0  0  0  0  0  0  0
   -4.5241   25.4976  237.3429 C   0  0  0  0  0  0  0  0  0  0  0  0
   -5.1787   25.3825  238.7137 C   0  0  0  0  0  0  0  0  0  0  0  0
   -4.2242   24.4944  239.4663 C   0  0  0  0  0  0  0  0  0  0  0  0
   -3.3987   22.2886  238.7426 C   0  0  0  0  0  0  0  0  0  0  0  0
   -3.1589   21.3303  237.6343 C   0  0  0  0  0  0  0  0  0  0  0  0
   -2.4316   21.6341  236.4646 C   0  0  0  0  0  0  0  0  0  0  0  0
   -0.6396   23.2310  235.7580 C   0  0  0  0  0  0  0  0  0  0  0  0
   -2.2184   20.6734  235.4825 C   0  0  0  0  0  0  0  0  0  0  0  0
   -2.7244   19.3962  235.6494 C   0  0  0  0  0  0  0  0  0  0  0  0
   -3.4468   19.0689  236.7829 C   0  0  0  0  0  0  0  0  0  0  0  0
   -3.6615   20.0270  237.7586 C   0  0  0  0  0  0  0  0  0  0  0  0
   -4.6757   19.5083  239.2741 Br  0  0  0  0  0  0  0  0  0  0  0  0
   -4.3208   28.5416  238.1925 H   0  0  0  0  0  0  0  0  0  0  0  0
   -3.1577   27.7053  239.2083 H   0  0  0  0  0  0  0  0  0  0  0  0
   -3.1731   29.4605  239.1529 H   0  0  0  0  0  0  0  0  0  0  0  0
   -0.1239   28.6150  237.4649 H   0  0  0  0  0  0  0  0  0  0  0  0
   -0.8638   30.1733  237.3054 H   0  0  0  0  0  0  0  0  0  0  0  0
   -0.8795   29.3594  238.8346 H   0  0  0  0  0  0  0  0  0  0  0  0
   -3.7527   28.6018  235.7937 H   0  0  0  0  0  0  0  0  0  0  0  0
   -3.2474   30.1817  236.3631 H   0  0  0  0  0  0  0  0  0  0  0  0
   -2.1738   29.2276  235.3569 H   0  0  0  0  0  0  0  0  0  0  0  0
   -4.5558   23.5418  236.4402 H   0  0  0  0  0  0  0  0  0  0  0  0
   -5.2780   25.7756  236.6079 H   0  0  0  0  0  0  0  0  0  0  0  0
   -3.8005   26.3113  237.3585 H   0  0  0  0  0  0  0  0  0  0  0  0
   -5.3051   26.3483  239.2007 H   0  0  0  0  0  0  0  0  0  0  0  0
   -6.1794   24.9556  238.6662 H   0  0  0  0  0  0  0  0  0  0  0  0
   -4.6736   23.9839  240.3168 H   0  0  0  0  0  0  0  0  0  0  0  0
   -3.3577   25.0178  239.8680 H   0  0  0  0  0  0  0  0  0  0  0  0
    0.0977   22.4743  235.4940 H   0  0  0  0  0  0  0  0  0  0  0  0
   -1.6571   20.9111  234.5801 H   0  0  0  0  0  0  0  0  0  0  0  0
   -2.5540   18.6407  234.8837 H   0  0  0  0  0  0  0  0  0  0  0  0
   -3.8467   18.0643  236.9119 H   0  0  0  0  0  0  0  0  0  0  0  0
  2  4  1  0  0  0  0
  3  4  1  0  0  0  0
  4  7  1  0  0  0  0
  4 10  1  0  0  0  0
  3 11  1  0  0  0  0
  6 11  2  0  0  0  0
  8 12  1  0  0  0  0
 11 12  1  0  0  0  0
  5 13  1  0  0  0  0
 12 13  2  0  0  0  0
  1 14  1  0  0  0  0
 13 14  1  0  0  0  0
 14 15  1  0  0  0  0
 15 16  1  0  0  0  0
  1 17  1  0  0  0  0
 16 17  1  0  0  0  0
  1 18  1  0  0  0  0
  9 18  2  0  0  0  0
 18 19  1  0  0  0  0
  5 20  1  0  0  0  0
 19 20  2  0  0  0  0
  5 21  1  0  0  0  0
  8 21  2  0  0  0  0
 20 22  1  0  0  0  0
 22 23  2  0  0  0  0
 23 24  1  0  0  0  0
 19 25  1  0  0  0  0
 24 25  2  0  0  0  0
 25 26  1  0  0  0  0
  2 27  1  0  0  0  0
  2 28  1  0  0  0  0
  2 29  1  0  0  0  0
  7 30  1  0  0  0  0
  7 31  1  0  0  0  0
  7 32  1  0  0  0  0
 10 33  1  0  0  0  0
 10 34  1  0  0  0  0
 10 35  1  0  0  0  0
 14 36  1  0  0  0  0
 15 37  1  0  0  0  0
 15 38  1  0  0  0  0
 16 39  1  0  0  0  0
 16 40  1  0  0  0  0
 17 41  1  0  0  0  0
 17 42  1  0  0  0  0
 21 43  1  0  0  0  0
 22 44  1  0  0  0  0
 23 45  1  0  0  0  0
 24 46  1  0  0  0  0
M  END
$$$$
