7VUU
  PyMOL3.1          3D                             0

 12 13  0  0  0  0  0  0  0  0999 V2000
   18.3085   -5.9761   41.8915 N   0  0  0  0  0  0  0  0  0  0  0  0
   18.4574   -6.6920   43.0432 N   0  0  0  0  0  0  0  0  0  0  0  0
   18.2647   -8.1186   41.4028 C   0  0  0  0  0  0  0  0  0  0  0  0
   18.4282   -8.0212   42.7279 N   0  0  0  0  0  0  0  0  0  0  0  0
   18.1761   -9.2294   40.5603 C   0  0  0  0  0  0  0  0  0  0  0  0
   17.9949   -9.0157   39.2025 C   0  0  0  0  0  0  0  0  0  0  0  0
   17.9082   -7.7360   38.6653 C   0  0  0  0  0  0  0  0  0  0  0  0
   18.0086   -6.6356   39.4985 C   0  0  0  0  0  0  0  0  0  0  0  0
   18.1884   -6.8405   40.8788 C   0  0  0  0  0  0  0  0  0  0  0  0
   17.5774   -9.8868   37.1581 O   0  0  0  0  0  0  0  0  0  0  0  0
   18.0308  -11.4085   38.7412 O   0  0  0  0  0  0  0  0  0  0  0  0
   17.8676  -10.1067   38.2760 N   0  0  0  0  0  0  0  0  0  0  0  0
  1  2  1  0  0  0  0
  2  4  2  0  0  0  0
  3  4  1  0  0  0  0
  3  5  1  0  0  0  0
  5  6  2  0  0  0  0
  6  7  1  0  0  0  0
  7  8  2  0  0  0  0
  1  9  1  0  0  0  0
  3  9  2  0  0  0  0
  8  9  1  0  0  0  0
  6 12  1  0  0  0  0
 10 12  2  0  0  0  0
 11 12  1  0  0  0  0
M  END
$$$$
