8C1K
  PyMOL3.1          3D                             0

 33 36  0  0  0  0  0  0  0  0999 V2000
   -6.3210   -6.2750   18.1350 N   0  0  0  0  0  0  0  0  0  0  0  0
   -7.4610   -7.1990   18.1620 C   0  0  0  0  0  0  0  0  0  0  0  0
   -5.7760   -4.6940   16.2150 O   0  0  0  0  0  0  0  0  0  0  0  0
   -8.8480  -15.4950   15.9240 Cl  0  0  0  0  0  0  0  0  0  0  0  0
   -5.5520   -6.2290   19.3840 C   0  0  0  0  0  0  0  0  0  0  0  0
   -6.2750   -6.9650   15.5790 N   0  0  0  0  0  0  0  0  0  0  0  0
   -4.1460   -6.4060   16.8140 O   0  0  0  0  0  0  0  0  0  0  0  0
   -6.3060   -6.8200   14.2010 C   0  0  0  0  0  0  0  0  0  0  0  0
   -6.8970  -12.7060   18.0100 N   0  0  0  0  0  0  0  0  0  0  0  0
   -5.6800   -5.9200   13.6450 O   0  0  0  0  0  0  0  0  0  0  0  0
   -7.0970   -7.8400   13.4360 C   0  0  0  0  0  0  0  0  0  0  0  0
   -8.5860   -8.6850   10.1410 N   0  0  0  0  0  0  0  0  0  0  0  0
   -6.3760  -13.9110   16.0970 O   0  0  0  0  0  0  0  0  0  0  0  0
   -7.3710   -9.0680   14.0480 C   0  0  0  0  0  0  0  0  0  0  0  0
   -8.0110  -10.1070   13.3630 C   0  0  0  0  0  0  0  0  0  0  0  0
   -8.2250  -11.4150   14.0520 C   0  0  0  0  0  0  0  0  0  0  0  0
   -9.4510  -12.0750   13.9590 C   0  0  0  0  0  0  0  0  0  0  0  0
   -9.6460  -13.3120   14.5480 C   0  0  0  0  0  0  0  0  0  0  0  0
   -8.6180  -13.9130   15.2480 C   0  0  0  0  0  0  0  0  0  0  0  0
   -7.3870  -13.2690   15.3810 C   0  0  0  0  0  0  0  0  0  0  0  0
   -6.1840  -13.6510   17.4210 C   0  0  0  0  0  0  0  0  0  0  0  0
   -5.2110  -14.4400   18.0610 C   0  0  0  0  0  0  0  0  0  0  0  0
   -5.0010  -14.2040   19.4090 C   0  0  0  0  0  0  0  0  0  0  0  0
   -5.7320  -13.2300   20.0570 C   0  0  0  0  0  0  0  0  0  0  0  0
   -6.6630  -12.5090   19.3180 C   0  0  0  0  0  0  0  0  0  0  0  0
   -7.1980  -12.0280   14.7820 C   0  0  0  0  0  0  0  0  0  0  0  0
   -8.4180   -9.8840   12.0220 C   0  0  0  0  0  0  0  0  0  0  0  0
   -9.0410  -10.6940   11.0250 C   0  0  0  0  0  0  0  0  0  0  0  0
   -9.1200   -9.9280    9.9040 C   0  0  0  0  0  0  0  0  0  0  0  0
   -8.1380   -8.6340   11.4490 C   0  0  0  0  0  0  0  0  0  0  0  0
   -7.4910   -7.5890   12.1010 C   0  0  0  0  0  0  0  0  0  0  0  0
   -7.2290   -6.2840   11.3990 C   0  0  0  0  0  0  0  0  0  0  0  0
   -5.5130   -6.0180   16.6790 S   0  0  0  0  0  0  0  0  0  0  0  0
  1  2  1  0  0  0  0
  1  5  1  0  0  0  0
  6  8  1  0  0  0  0
  8 10  2  0  0  0  0
  8 11  1  0  0  0  0
 11 14  1  0  0  0  0
 14 15  2  0  0  0  0
 15 16  1  0  0  0  0
 16 17  2  0  0  0  0
 17 18  1  0  0  0  0
  4 19  1  0  0  0  0
 18 19  2  0  0  0  0
 13 20  1  0  0  0  0
 19 20  1  0  0  0  0
  9 21  2  0  0  0  0
 13 21  1  0  0  0  0
 21 22  1  0  0  0  0
 22 23  2  0  0  0  0
 23 24  1  0  0  0  0
  9 25  1  0  0  0  0
 24 25  2  0  0  0  0
 16 26  1  0  0  0  0
 20 26  2  0  0  0  0
 15 27  1  0  0  0  0
 27 28  1  0  0  0  0
 12 29  1  0  0  0  0
 28 29  2  0  0  0  0
 12 30  1  0  0  0  0
 27 30  2  0  0  0  0
 11 31  2  0  0  0  0
 30 31  1  0  0  0  0
 31 32  1  0  0  0  0
  1 33  1  0  0  0  0
  3 33  2  0  0  0  0
  6 33  1  0  0  0  0
  7 33  2  0  0  0  0
M  END
$$$$
