9B4G
  PyMOL3.1          3D                             0

 90100  0  0  0  0  0  0  0  0999 V2000
  115.5620  143.0480   95.8750 O   0  0  0  0  0  0  0  0  0  0  0  0
  116.1970  142.1680   96.3340 C   0  0  0  0  0  0  0  0  0  0  0  0
  117.0020  142.2450   97.4750 O   0  0  0  0  0  0  0  0  0  0  0  0
  117.6020  140.9450   97.6860 C   0  0  0  0  0  0  0  0  0  0  0  0
  118.4670  140.4700   98.6820 C   0  0  0  0  0  0  0  0  0  0  0  0
  118.9450  141.4570   99.7330 C   0  0  0  0  0  0  0  0  0  0  0  0
  118.3650  142.6390  100.0090 N   0  0  0  0  0  0  0  0  0  0  0  0
  119.1170  143.2500  100.9740 N   0  0  0  0  0  0  0  0  0  0  0  0
  120.1470  142.4890  101.2940 C   0  0  0  0  0  0  0  0  0  0  0  0
  120.0960  141.3510  100.5350 C   0  0  0  0  0  0  0  0  0  0  0  0
  121.2860  140.4630  100.9240 C   0  0  0  0  0  0  0  0  0  0  0  0
  120.7720  139.2550  101.6860 C   0  0  0  0  0  0  0  0  0  0  0  0
  121.1180  137.9530  101.3570 C   0  0  0  0  0  0  0  0  0  0  0  0
  120.6280  136.8960  102.1130 C   0  0  0  0  0  0  0  0  0  0  0  0
  119.7990  137.1500  103.1920 C   0  0  0  0  0  0  0  0  0  0  0  0
  119.2470  136.1640  104.0220 O   0  0  0  0  0  0  0  0  0  0  0  0
  119.4110  134.8200  103.6730 C   0  0  0  0  0  0  0  0  0  0  0  0
  120.2230  134.0200  104.4600 C   0  0  0  0  0  0  0  0  0  0  0  0
  120.3800  132.6800  104.1540 C   0  0  0  0  0  0  0  0  0  0  0  0
  121.2770  131.7900  105.0050 C   0  0  0  0  0  0  0  0  0  0  0  0
  119.7160  132.1410  103.0690 C   0  0  0  0  0  0  0  0  0  0  0  0
  118.8960  132.9380  102.2960 C   0  0  0  0  0  0  0  0  0  0  0  0
  118.1690  132.3220  101.1130 C   0  0  0  0  0  0  0  0  0  0  0  0
  118.7310  134.2740  102.5980 C   0  0  0  0  0  0  0  0  0  0  0  0
  119.4640  138.4470  103.5150 C   0  0  0  0  0  0  0  0  0  0  0  0
  119.9520  139.4940  102.7680 C   0  0  0  0  0  0  0  0  0  0  0  0
  122.0470  141.1660  101.9060 N   0  0  0  0  0  0  0  0  0  0  0  0
  123.2440  140.6810  102.5600 C   0  0  0  0  0  0  0  0  0  0  0  0
  124.3610  140.4360  101.5620 C   0  0  0  0  0  0  0  0  0  0  0  0
  125.6980  140.7190  102.2260 C   0  0  0  0  0  0  0  0  0  0  0  0
  121.3800  142.4070  102.1960 C   0  0  0  0  0  0  0  0  0  0  0  0
  121.7200  143.2240  102.9780 O   0  0  0  0  0  0  0  0  0  0  0  0
  118.9180  139.1540   98.6490 C   0  0  0  0  0  0  0  0  0  0  0  0
  118.4710  138.2970   97.6340 C   0  0  0  0  0  0  0  0  0  0  0  0
  117.5990  138.7630   96.6580 C   0  0  0  0  0  0  0  0  0  0  0  0
  117.1630  140.0980   96.6870 C   0  0  0  0  0  0  0  0  0  0  0  0
  116.2810  140.8470   95.8320 N   0  0  0  0  0  0  0  0  0  0  0  0
  121.7360  130.7440  104.2610 F   0  0  0  0  0  0  0  0  0  0  0  0
  122.3270  132.5180  105.4670 F   0  0  0  0  0  0  0  0  0  0  0  0
  120.5620  131.3160  106.0610 F   0  0  0  0  0  0  0  0  0  0  0  0
  117.5030  133.2950  100.4320 F   0  0  0  0  0  0  0  0  0  0  0  0
  117.2710  131.4100  101.5790 F   0  0  0  0  0  0  0  0  0  0  0  0
  119.0830  131.7070  100.3090 F   0  0  0  0  0  0  0  0  0  0  0  0
  124.3420  139.1360  101.1700 F   0  0  0  0  0  0  0  0  0  0  0  0
  124.1930  141.2440  100.4830 F   0  0  0  0  0  0  0  0  0  0  0  0
  134.7260  107.2450   95.8730 O   0  0  0  0  0  0  0  0  0  0  0  0
  134.0910  108.1250   96.3330 C   0  0  0  0  0  0  0  0  0  0  0  0
  133.2860  108.0480   97.4740 O   0  0  0  0  0  0  0  0  0  0  0  0
  132.6860  109.3480   97.6850 C   0  0  0  0  0  0  0  0  0  0  0  0
  131.8210  109.8230   98.6810 C   0  0  0  0  0  0  0  0  0  0  0  0
  131.3430  108.8360   99.7320 C   0  0  0  0  0  0  0  0  0  0  0  0
  131.9230  107.6540  100.0080 N   0  0  0  0  0  0  0  0  0  0  0  0
  131.1710  107.0430  100.9730 N   0  0  0  0  0  0  0  0  0  0  0  0
  130.1410  107.8040  101.2930 C   0  0  0  0  0  0  0  0  0  0  0  0
  130.1920  108.9420  100.5340 C   0  0  0  0  0  0  0  0  0  0  0  0
  129.0020  109.8300  100.9230 C   0  0  0  0  0  0  0  0  0  0  0  0
  129.5160  111.0380  101.6860 C   0  0  0  0  0  0  0  0  0  0  0  0
  129.1710  112.3400  101.3570 C   0  0  0  0  0  0  0  0  0  0  0  0
  129.6610  113.3960  102.1130 C   0  0  0  0  0  0  0  0  0  0  0  0
  130.4900  113.1420  103.1920 C   0  0  0  0  0  0  0  0  0  0  0  0
  131.0420  114.1280  104.0220 O   0  0  0  0  0  0  0  0  0  0  0  0
  130.8780  115.4720  103.6730 C   0  0  0  0  0  0  0  0  0  0  0  0
  130.0660  116.2720  104.4600 C   0  0  0  0  0  0  0  0  0  0  0  0
  129.9090  117.6120  104.1540 C   0  0  0  0  0  0  0  0  0  0  0  0
  129.0120  118.5020  105.0060 C   0  0  0  0  0  0  0  0  0  0  0  0
  130.5730  118.1510  103.0690 C   0  0  0  0  0  0  0  0  0  0  0  0
  131.3930  117.3540  102.2960 C   0  0  0  0  0  0  0  0  0  0  0  0
  132.1200  117.9700  101.1130 C   0  0  0  0  0  0  0  0  0  0  0  0
  131.5580  116.0180  102.5980 C   0  0  0  0  0  0  0  0  0  0  0  0
  130.8250  111.8450  103.5140 C   0  0  0  0  0  0  0  0  0  0  0  0
  130.3370  110.7980  102.7670 C   0  0  0  0  0  0  0  0  0  0  0  0
  128.2410  109.1270  101.9050 N   0  0  0  0  0  0  0  0  0  0  0  0
  127.0440  109.6120  102.5600 C   0  0  0  0  0  0  0  0  0  0  0  0
  125.9270  109.8570  101.5620 C   0  0  0  0  0  0  0  0  0  0  0  0
  124.5900  109.5740  102.2260 C   0  0  0  0  0  0  0  0  0  0  0  0
  128.9080  107.8860  102.1950 C   0  0  0  0  0  0  0  0  0  0  0  0
  128.5680  107.0680  102.9770 O   0  0  0  0  0  0  0  0  0  0  0  0
  131.3700  111.1390   98.6480 C   0  0  0  0  0  0  0  0  0  0  0  0
  131.8170  111.9960   97.6330 C   0  0  0  0  0  0  0  0  0  0  0  0
  132.6890  111.5300   96.6570 C   0  0  0  0  0  0  0  0  0  0  0  0
  133.1250  110.1950   96.6860 C   0  0  0  0  0  0  0  0  0  0  0  0
  134.0070  109.4460   95.8310 N   0  0  0  0  0  0  0  0  0  0  0  0
  128.5530  119.5480  104.2620 F   0  0  0  0  0  0  0  0  0  0  0  0
  127.9620  117.7740  105.4680 F   0  0  0  0  0  0  0  0  0  0  0  0
  129.7280  118.9760  106.0620 F   0  0  0  0  0  0  0  0  0  0  0  0
  132.7860  116.9970  100.4320 F   0  0  0  0  0  0  0  0  0  0  0  0
  133.0180  118.8820  101.5790 F   0  0  0  0  0  0  0  0  0  0  0  0
  131.2060  118.5860  100.3090 F   0  0  0  0  0  0  0  0  0  0  0  0
  125.9460  111.1570  101.1700 F   0  0  0  0  0  0  0  0  0  0  0  0
  126.0950  109.0490  100.4830 F   0  0  0  0  0  0  0  0  0  0  0  0
  1  2  2  0  0  0  0
  2  3  1  0  0  0  0
  3  4  1  0  0  0  0
  4  5  2  0  0  0  0
  5  6  1  0  0  0  0
  6  7  2  0  0  0  0
  7  8  1  0  0  0  0
  8  9  1  0  0  0  0
  6 10  1  0  0  0  0
  9 10  2  0  0  0  0
 10 11  1  0  0  0  0
 11 12  1  0  0  0  0
 12 13  2  0  0  0  0
 13 14  1  0  0  0  0
 14 15  2  0  0  0  0
 15 16  1  0  0  0  0
 16 17  1  0  0  0  0
 17 18  2  0  0  0  0
 18 19  1  0  0  0  0
 19 20  1  0  0  0  0
 19 21  2  0  0  0  0
 21 22  1  0  0  0  0
 22 23  1  0  0  0  0
 17 24  1  0  0  0  0
 22 24  2  0  0  0  0
 15 25  1  0  0  0  0
 12 26  1  0  0  0  0
 25 26  2  0  0  0  0
 11 27  1  0  0  0  0
 27 28  1  0  0  0  0
 28 29  1  0  0  0  0
 29 30  1  0  0  0  0
  9 31  1  0  0  0  0
 27 31  1  0  0  0  0
 31 32  2  0  0  0  0
  5 33  1  0  0  0  0
 33 34  2  0  0  0  0
 34 35  1  0  0  0  0
  4 36  1  0  0  0  0
 35 36  2  0  0  0  0
  2 37  1  0  0  0  0
 36 37  1  0  0  0  0
 20 38  1  0  0  0  0
 20 39  1  0  0  0  0
 20 40  1  0  0  0  0
 23 41  1  0  0  0  0
 23 42  1  0  0  0  0
 23 43  1  0  0  0  0
 29 44  1  0  0  0  0
 29 45  1  0  0  0  0
 46 47  2  0  0  0  0
 47 48  1  0  0  0  0
 48 49  1  0  0  0  0
 49 50  2  0  0  0  0
 50 51  1  0  0  0  0
 51 52  2  0  0  0  0
 52 53  1  0  0  0  0
 53 54  1  0  0  0  0
 51 55  1  0  0  0  0
 54 55  2  0  0  0  0
 55 56  1  0  0  0  0
 56 57  1  0  0  0  0
 57 58  2  0  0  0  0
 58 59  1  0  0  0  0
 59 60  2  0  0  0  0
 60 61  1  0  0  0  0
 61 62  1  0  0  0  0
 62 63  2  0  0  0  0
 63 64  1  0  0  0  0
 64 65  1  0  0  0  0
 64 66  2  0  0  0  0
 66 67  1  0  0  0  0
 67 68  1  0  0  0  0
 62 69  1  0  0  0  0
 67 69  2  0  0  0  0
 60 70  1  0  0  0  0
 57 71  1  0  0  0  0
 70 71  2  0  0  0  0
 56 72  1  0  0  0  0
 72 73  1  0  0  0  0
 73 74  1  0  0  0  0
 74 75  1  0  0  0  0
 54 76  1  0  0  0  0
 72 76  1  0  0  0  0
 76 77  2  0  0  0  0
 50 78  1  0  0  0  0
 78 79  2  0  0  0  0
 79 80  1  0  0  0  0
 49 81  1  0  0  0  0
 80 81  2  0  0  0  0
 47 82  1  0  0  0  0
 81 82  1  0  0  0  0
 65 83  1  0  0  0  0
 65 84  1  0  0  0  0
 65 85  1  0  0  0  0
 68 86  1  0  0  0  0
 68 87  1  0  0  0  0
 68 88  1  0  0  0  0
 74 89  1  0  0  0  0
 74 90  1  0  0  0  0
M  END
$$$$
