8HNM
  PyMOL3.1          3D                             0

 27 30  0  0  0  0  0  0  0  0999 V2000
  108.2410  125.8900   88.2160 C   0  0  0  0  0  0  0  0  0  0  0  0
  112.7900  128.6220   86.8830 N   0  0  0  0  0  0  0  0  0  0  0  0
  109.0160  125.3230   87.0350 C   0  0  0  0  0  0  0  0  0  0  0  0
  108.6910  125.8630   85.6070 C   0  0  0  0  0  0  0  0  0  0  0  0
  108.4600  127.3660   85.6040 C   0  0  0  0  0  0  0  0  0  0  0  0
  109.5770  128.0770   86.3170 C   0  0  0  0  0  0  0  0  0  0  0  0
  110.5360  127.3770   86.9020 C   0  0  0  0  0  0  0  0  0  0  0  0
  110.4620  125.8710   86.7540 C   0  0  0  0  0  0  0  0  0  0  0  0
  110.1670  125.5850   85.2540 C   0  0  0  0  0  0  0  0  0  0  0  0
  111.6650  127.9830   87.7050 C   0  0  0  0  0  0  0  0  0  0  0  0
  112.2730  129.8270   86.1550 C   0  0  0  0  0  0  0  0  0  0  0  0
  113.3360  127.6570   85.8730 C   0  0  0  0  0  0  0  0  0  0  0  0
  113.9060  129.0680   87.8350 C   0  0  0  0  0  0  0  0  0  0  0  0
  114.5700  128.0140   88.6860 C   0  0  0  0  0  0  0  0  0  0  0  0
  114.0180  127.6180   89.8930 C   0  0  0  0  0  0  0  0  0  0  0  0
  114.6390  126.6690   90.6870 C   0  0  0  0  0  0  0  0  0  0  0  0
  115.8510  126.0890   90.3220 C   0  0  0  0  0  0  0  0  0  0  0  0
  116.4080  126.5120   89.1180 C   0  0  0  0  0  0  0  0  0  0  0  0
  115.7860  127.4600   88.3210 C   0  0  0  0  0  0  0  0  0  0  0  0
  116.4810  125.0830   91.2270 C   0  0  0  0  0  0  0  0  0  0  0  0
  115.7960  124.7550   92.4050 C   0  0  0  0  0  0  0  0  0  0  0  0
  116.3140  123.8450   93.3000 C   0  0  0  0  0  0  0  0  0  0  0  0
  117.5280  123.2470   93.0530 C   0  0  0  0  0  0  0  0  0  0  0  0
  118.2290  123.5540   91.9120 C   0  0  0  0  0  0  0  0  0  0  0  0
  117.7150  124.4650   91.0090 C   0  0  0  0  0  0  0  0  0  0  0  0
  108.9570  123.8080   87.1330 C   0  0  0  0  0  0  0  0  0  0  0  0
  118.7940  124.7920   89.4760 Br  0  0  0  0  0  0  0  0  0  0  0  0
  1  3  1  0  0  0  0
  3  4  1  0  0  0  0
  4  5  1  0  0  0  0
  5  6  1  0  0  0  0
  6  7  2  0  0  0  0
  3  8  1  0  0  0  0
  7  8  1  0  0  0  0
  4  9  1  0  0  0  0
  8  9  1  0  0  0  0
  2 10  1  0  0  0  0
  7 10  1  0  0  0  0
  2 11  1  0  0  0  0
  2 12  1  0  0  0  0
  2 13  1  0  0  0  0
 13 14  1  0  0  0  0
 14 15  1  0  0  0  0
 15 16  2  0  0  0  0
 16 17  1  0  0  0  0
 17 18  2  0  0  0  0
 14 19  2  0  0  0  0
 18 19  1  0  0  0  0
 17 20  1  0  0  0  0
 20 21  1  0  0  0  0
 21 22  2  0  0  0  0
 22 23  1  0  0  0  0
 23 24  2  0  0  0  0
 20 25  2  0  0  0  0
 24 25  1  0  0  0  0
  3 26  1  0  0  0  0
 25 27  1  0  0  0  0
M  END
$$$$
