8TBS
  PyMOL3.1          3D                             0

 28 32  0  0  0  0  0  0  0  0999 V2000
    6.7160  -51.1424 -181.8474 C   0  0  0  0  0  0  0  0  0  0  0  0
    6.7047  -51.1194 -180.4978 N   0  0  0  0  0  0  0  0  0  0  0  0
    6.7292  -52.3849 -179.8943 C   0  0  0  0  0  0  0  0  0  0  0  0
    6.7525  -53.4760 -180.8106 C   0  0  0  0  0  0  0  0  0  0  0  0
    6.7396  -52.7639 -182.3901 S   0  0  0  0  0  0  0  0  0  0  0  0
    6.7386  -52.8693 -178.6170 N   0  0  0  0  0  0  0  0  0  0  0  0
    6.7701  -54.2406 -178.6343 C   0  0  0  0  0  0  0  0  0  0  0  0
    6.7815  -54.6863 -179.9895 C   0  0  0  0  0  0  0  0  0  0  0  0
    6.7946  -55.2696 -177.6086 C   0  0  0  0  0  0  0  0  0  0  0  0
    6.8127  -56.5583 -177.9628 N   0  0  0  0  0  0  0  0  0  0  0  0
    6.8355  -56.9614 -179.2139 N   0  0  0  0  0  0  0  0  0  0  0  0
    6.8185  -56.1068 -180.2395 C   0  0  0  0  0  0  0  0  0  0  0  0
    6.7827  -54.9872 -176.4323 O   0  0  0  0  0  0  0  0  0  0  0  0
    6.7171  -52.0211 -177.4312 C   0  0  0  0  0  0  0  0  0  0  0  0
    6.6560  -49.9089 -182.7382 C   0  0  0  0  0  0  0  0  0  0  0  0
    5.1540  -49.6523 -182.7628 C   0  0  0  0  0  0  0  0  0  0  0  0
    4.1830  -50.3551 -183.5468 C   0  0  0  0  0  0  0  0  0  0  0  0
    2.9326  -49.7672 -183.2092 C   0  0  0  0  0  0  0  0  0  0  0  0
    3.1946  -48.8273 -182.3052 N   0  0  0  0  0  0  0  0  0  0  0  0
    4.4823  -48.7687 -182.0437 N   0  0  0  0  0  0  0  0  0  0  0  0
    6.8599  -57.5471 -176.9091 C   0  0  0  0  0  0  0  0  0  0  0  0
    8.3733  -57.6985 -176.6456 C   0  0  0  0  0  0  0  0  0  0  0  0
    9.1847  -58.3514 -177.5806 C   0  0  0  0  0  0  0  0  0  0  0  0
   10.5719  -58.4716 -177.3254 C   0  0  0  0  0  0  0  0  0  0  0  0
   11.0455  -57.9045 -176.1279 C   0  0  0  0  0  0  0  0  0  0  0  0
   10.1569  -57.2662 -175.2610 C   0  0  0  0  0  0  0  0  0  0  0  0
    8.8688  -57.1782 -175.5456 N   0  0  0  0  0  0  0  0  0  0  0  0
   10.6242  -56.6935 -174.0475 N   0  0  0  0  0  0  0  0  0  0  0  0
  1  2  2  0  0  0  0
  2  3  1  0  0  0  0
  3  4  2  0  0  0  0
  1  5  1  0  0  0  0
  4  5  1  0  0  0  0
  3  6  1  0  0  0  0
  6  7  1  0  0  0  0
  4  8  1  0  0  0  0
  7  8  2  0  0  0  0
  7  9  1  0  0  0  0
  9 10  1  0  0  0  0
 10 11  1  0  0  0  0
  8 12  1  0  0  0  0
 11 12  2  0  0  0  0
  9 13  2  0  0  0  0
  6 14  1  0  0  0  0
  1 15  1  0  0  0  0
 15 16  1  0  0  0  0
 16 17  1  0  0  0  0
 17 18  2  0  0  0  0
 18 19  1  0  0  0  0
 16 20  2  0  0  0  0
 19 20  1  0  0  0  0
 10 21  1  0  0  0  0
 21 22  1  0  0  0  0
 22 23  2  0  0  0  0
 23 24  1  0  0  0  0
 24 25  2  0  0  0  0
 25 26  1  0  0  0  0
 22 27  1  0  0  0  0
 26 27  2  0  0  0  0
 26 28  1  0  0  0  0
M  END
$$$$
