8TBS
  PyMOL3.1          3D                             0

 28 32  0  0  0  0  0  0  0  0999 V2000
  -15.5695  -12.3843  -97.3744 C   0  0  0  0  0  0  0  0  0  0  0  0
  -14.9880  -12.4488  -98.5971 N   0  0  0  0  0  0  0  0  0  0  0  0
  -15.8863  -12.4300  -99.6811 C   0  0  0  0  0  0  0  0  0  0  0  0
  -17.2587  -12.3563  -99.3015 C   0  0  0  0  0  0  0  0  0  0  0  0
  -17.2674  -12.3198  -97.5714 S   0  0  0  0  0  0  0  0  0  0  0  0
  -15.8086  -12.4634 -101.0481 N   0  0  0  0  0  0  0  0  0  0  0  0
  -17.0682  -12.4126 -101.5958 C   0  0  0  0  0  0  0  0  0  0  0  0
  -18.0290  -12.3455 -100.5458 C   0  0  0  0  0  0  0  0  0  0  0  0
  -17.5816  -12.4153 -102.9538 C   0  0  0  0  0  0  0  0  0  0  0  0
  -18.9071  -12.3668 -103.1647 N   0  0  0  0  0  0  0  0  0  0  0  0
  -19.7859  -12.2922 -102.1914 N   0  0  0  0  0  0  0  0  0  0  0  0
  -19.4255  -12.2842 -100.9005 C   0  0  0  0  0  0  0  0  0  0  0  0
  -16.8177  -12.4737 -103.8925 O   0  0  0  0  0  0  0  0  0  0  0  0
  -14.5596  -12.5364 -101.7960 C   0  0  0  0  0  0  0  0  0  0  0  0
  -14.8370  -12.4340  -96.0325 C   0  0  0  0  0  0  0  0  0  0  0  0
  -14.6770  -13.9475  -95.8447 C   0  0  0  0  0  0  0  0  0  0  0  0
  -15.6916  -14.8705  -95.4241 C   0  0  0  0  0  0  0  0  0  0  0  0
  -15.0716  -16.1546  -95.4287 C   0  0  0  0  0  0  0  0  0  0  0  0
  -13.8167  -15.9603  -95.8297 N   0  0  0  0  0  0  0  0  0  0  0  0
  -13.5972  -14.6847  -96.0762 N   0  0  0  0  0  0  0  0  0  0  0  0
  -19.4037  -12.3519 -104.5220 C   0  0  0  0  0  0  0  0  0  0  0  0
  -19.3082  -10.8767 -104.9584 C   0  0  0  0  0  0  0  0  0  0  0  0
  -20.1883   -9.9383 -104.4187 C   0  0  0  0  0  0  0  0  0  0  0  0
  -20.0744   -8.5864 -104.8220 C   0  0  0  0  0  0  0  0  0  0  0  0
  -19.0657   -8.2721 -105.7501 C   0  0  0  0  0  0  0  0  0  0  0  0
  -18.2337   -9.2813 -106.2292 C   0  0  0  0  0  0  0  0  0  0  0  0
  -18.3756  -10.5337 -105.8198 N   0  0  0  0  0  0  0  0  0  0  0  0
  -17.2135   -8.9685 -107.1682 N   0  0  0  0  0  0  0  0  0  0  0  0
  1  2  2  0  0  0  0
  2  3  1  0  0  0  0
  3  4  2  0  0  0  0
  1  5  1  0  0  0  0
  4  5  1  0  0  0  0
  3  6  1  0  0  0  0
  6  7  1  0  0  0  0
  4  8  1  0  0  0  0
  7  8  2  0  0  0  0
  7  9  1  0  0  0  0
  9 10  1  0  0  0  0
 10 11  1  0  0  0  0
  8 12  1  0  0  0  0
 11 12  2  0  0  0  0
  9 13  2  0  0  0  0
  6 14  1  0  0  0  0
  1 15  1  0  0  0  0
 15 16  1  0  0  0  0
 16 17  1  0  0  0  0
 17 18  2  0  0  0  0
 18 19  1  0  0  0  0
 16 20  2  0  0  0  0
 19 20  1  0  0  0  0
 10 21  1  0  0  0  0
 21 22  1  0  0  0  0
 22 23  2  0  0  0  0
 23 24  1  0  0  0  0
 24 25  2  0  0  0  0
 25 26  1  0  0  0  0
 22 27  1  0  0  0  0
 26 27  2  0  0  0  0
 26 28  1  0  0  0  0
M  END
$$$$
