8TBS
  PyMOL3.1          3D                             0

 28 32  0  0  0  0  0  0  0  0999 V2000
  -36.9586  -11.6503  -85.8637 C   0  0  0  0  0  0  0  0  0  0  0  0
  -38.2907  -11.6069  -86.1053 N   0  0  0  0  0  0  0  0  0  0  0  0
  -38.6404  -11.6091  -87.4690 C   0  0  0  0  0  0  0  0  0  0  0  0
  -37.5272  -11.6462  -88.3624 C   0  0  0  0  0  0  0  0  0  0  0  0
  -36.1185  -11.6769  -87.3537 S   0  0  0  0  0  0  0  0  0  0  0  0
  -39.7960  -11.5840  -88.2009 N   0  0  0  0  0  0  0  0  0  0  0  0
  -39.5055  -11.6030  -89.5456 C   0  0  0  0  0  0  0  0  0  0  0  0
  -38.0877  -11.6428  -89.7167 C   0  0  0  0  0  0  0  0  0  0  0  0
  -40.3092  -11.5933  -90.7544 C   0  0  0  0  0  0  0  0  0  0  0  0
  -39.7048  -11.6100  -91.9571 N   0  0  0  0  0  0  0  0  0  0  0  0
  -38.3965  -11.6580  -92.1031 N   0  0  0  0  0  0  0  0  0  0  0  0
  -37.5551  -11.6692  -91.0610 C   0  0  0  0  0  0  0  0  0  0  0  0
  -41.5186  -11.5591  -90.6810 O   0  0  0  0  0  0  0  0  0  0  0  0
  -41.1266  -11.5419  -87.6067 C   0  0  0  0  0  0  0  0  0  0  0  0
  -36.3066  -11.6261  -84.4829 C   0  0  0  0  0  0  0  0  0  0  0  0
  -36.3754  -10.1449  -84.1403 C   0  0  0  0  0  0  0  0  0  0  0  0
  -35.5305   -9.1072  -84.6516 C   0  0  0  0  0  0  0  0  0  0  0  0
  -36.0104   -7.9135  -84.0530 C   0  0  0  0  0  0  0  0  0  0  0  0
  -37.0374   -8.2658  -83.2869 N   0  0  0  0  0  0  0  0  0  0  0  0
  -37.2516   -9.5585  -83.3467 N   0  0  0  0  0  0  0  0  0  0  0  0
  -40.5192  -11.6179  -93.1564 C   0  0  0  0  0  0  0  0  0  0  0  0
  -40.8254  -13.1093  -93.3858 C   0  0  0  0  0  0  0  0  0  0  0  0
  -39.8057  -13.9498  -93.8317 C   0  0  0  0  0  0  0  0  0  0  0  0
  -40.0800  -15.3243  -94.0273 C   0  0  0  0  0  0  0  0  0  0  0  0
  -41.3847  -15.7595  -93.7461 C   0  0  0  0  0  0  0  0  0  0  0  0
  -42.3348  -14.8440  -93.2980 C   0  0  0  0  0  0  0  0  0  0  0  0
  -42.0330  -13.5648  -93.1247 N   0  0  0  0  0  0  0  0  0  0  0  0
  -43.6534  -15.2870  -93.0160 N   0  0  0  0  0  0  0  0  0  0  0  0
  1  2  2  0  0  0  0
  2  3  1  0  0  0  0
  3  4  2  0  0  0  0
  1  5  1  0  0  0  0
  4  5  1  0  0  0  0
  3  6  1  0  0  0  0
  6  7  1  0  0  0  0
  4  8  1  0  0  0  0
  7  8  2  0  0  0  0
  7  9  1  0  0  0  0
  9 10  1  0  0  0  0
 10 11  1  0  0  0  0
  8 12  1  0  0  0  0
 11 12  2  0  0  0  0
  9 13  2  0  0  0  0
  6 14  1  0  0  0  0
  1 15  1  0  0  0  0
 15 16  1  0  0  0  0
 16 17  1  0  0  0  0
 17 18  2  0  0  0  0
 18 19  1  0  0  0  0
 16 20  2  0  0  0  0
 19 20  1  0  0  0  0
 10 21  1  0  0  0  0
 21 22  1  0  0  0  0
 22 23  2  0  0  0  0
 23 24  1  0  0  0  0
 24 25  2  0  0  0  0
 25 26  1  0  0  0  0
 22 27  1  0  0  0  0
 26 27  2  0  0  0  0
 26 28  1  0  0  0  0
M  END
$$$$
