8YUV
  PyMOL3.1          3D                             0

 27 28  0  0  0  0  0  0  0  0999 V2000
   91.8160  121.4220  109.4830 C   0  0  0  0  0  0  0  0  0  0  0  0
   93.2370  121.4530  108.9450 C   0  0  0  0  0  0  0  0  0  0  0  0
   94.0840  120.3700  109.4620 N   0  0  0  0  0  0  0  0  0  0  0  0
   93.4230  119.0840  109.6590 C   0  0  0  0  0  0  0  0  0  0  0  0
   92.1500  119.2210  110.4780 C   0  0  0  0  0  0  0  0  0  0  0  0
   91.8690  120.6880  110.8200 C   0  0  0  0  0  0  0  0  0  0  0  0
   90.7110  120.7820  111.7860 C   0  0  0  0  0  0  0  0  0  0  0  0
   89.4440  120.7620  111.0420 C   0  0  0  0  0  0  0  0  0  0  0  0
   88.7940  121.8170  110.6050 C   0  0  0  0  0  0  0  0  0  0  0  0
   87.6450  121.4240  109.9730 N   0  0  0  0  0  0  0  0  0  0  0  0
   87.6840  120.1380  110.0090 C   0  0  0  0  0  0  0  0  0  0  0  0
   88.7740  119.6680  110.6630 N   0  0  0  0  0  0  0  0  0  0  0  0
   88.9820  118.8480  110.8080 H   0  0  0  0  0  0  0  0  0  0  0  0
   91.5110  122.3280  109.6120 H   0  0  0  0  0  0  0  0  0  0  0  0
   91.2590  120.9590  108.8420 H   0  0  0  0  0  0  0  0  0  0  0  0
   93.1960  121.3750  107.9790 H   0  0  0  0  0  0  0  0  0  0  0  0
   93.6390  122.3020  109.1810 H   0  0  0  0  0  0  0  0  0  0  0  0
   93.2030  118.7190  108.7900 H   0  0  0  0  0  0  0  0  0  0  0  0
   94.0320  118.4810  110.1090 H   0  0  0  0  0  0  0  0  0  0  0  0
   92.2040  118.6680  111.2660 H   0  0  0  0  0  0  0  0  0  0  0  0
   91.4140  118.9080  109.9590 H   0  0  0  0  0  0  0  0  0  0  0  0
   92.5750  121.1240  111.2810 H   0  0  0  0  0  0  0  0  0  0  0  0
   90.7330  120.0570  112.4250 H   0  0  0  0  0  0  0  0  0  0  0  0
   90.7810  121.6210  112.2650 H   0  0  0  0  0  0  0  0  0  0  0  0
   89.0540  122.6970  110.7470 H   0  0  0  0  0  0  0  0  0  0  0  0
   87.0360  119.6330  109.6290 H   0  0  0  0  0  0  0  0  0  0  0  0
   94.6150  120.6120  110.1370 H   0  0  0  0  0  0  0  0  0  0  0  0
  1  2  1  0  0  0  0
  2  3  1  0  0  0  0
  3  4  1  0  0  0  0
  4  5  1  0  0  0  0
  1  6  1  0  0  0  0
  5  6  1  0  0  0  0
  6  7  1  0  0  0  0
  7  8  1  0  0  0  0
  8  9  2  0  0  0  0
  9 10  1  0  0  0  0
 10 11  2  0  0  0  0
  8 12  1  0  0  0  0
 11 12  1  0  0  0  0
 12 13  1  0  0  0  0
  1 14  1  0  0  0  0
  1 15  1  0  0  0  0
  2 16  1  0  0  0  0
  2 17  1  0  0  0  0
  4 18  1  0  0  0  0
  4 19  1  0  0  0  0
  5 20  1  0  0  0  0
  5 21  1  0  0  0  0
  6 22  1  0  0  0  0
  7 23  1  0  0  0  0
  7 24  1  0  0  0  0
  9 25  1  0  0  0  0
 11 26  1  0  0  0  0
  3 27  1  0  0  0  0
M  END
$$$$
