8UT1
  PyMOL3.1          3D                             0

 27 29  0  0  0  0  0  0  0  0999 V2000
  129.2450  159.2010  183.6590 Cl  0  0  0  0  0  0  0  0  0  0  0  0
  130.2250  162.1540  178.5770 C   0  0  0  0  0  0  0  0  0  0  0  0
  132.5050  162.4590  178.2120 N   0  0  0  0  0  0  0  0  0  0  0  0
  130.5940  163.6570  178.6350 C   0  0  0  0  0  0  0  0  0  0  0  0
  129.9540  159.4030  181.1620 N   0  0  0  0  0  0  0  0  0  0  0  0
  131.8570  163.7000  177.7850 C   0  0  0  0  0  0  0  0  0  0  0  0
  131.5000  163.4310  176.3370 C   0  0  0  0  0  0  0  0  0  0  0  0
  131.2560  161.9250  176.3030 C   0  0  0  0  0  0  0  0  0  0  0  0
  131.4120  161.5680  177.7830 C   0  0  0  0  0  0  0  0  0  0  0  0
  130.0420  161.4600  179.9100 C   0  0  0  0  0  0  0  0  0  0  0  0
  129.6430  162.1450  181.0440 C   0  0  0  0  0  0  0  0  0  0  0  0
  129.4040  161.4730  182.2250 C   0  0  0  0  0  0  0  0  0  0  0  0
  129.5700  160.1080  182.2110 C   0  0  0  0  0  0  0  0  0  0  0  0
  130.1640  160.0880  180.0310 C   0  0  0  0  0  0  0  0  0  0  0  0
  132.6620  162.4270  179.0570 H   0  0  0  0  0  0  0  0  0  0  0  0
  129.3510  162.0220  178.1780 H   0  0  0  0  0  0  0  0  0  0  0  0
  132.3490  164.5330  177.8670 H   0  0  0  0  0  0  0  0  0  0  0  0
  131.5140  160.6110  177.9100 H   0  0  0  0  0  0  0  0  0  0  0  0
  129.5340  163.0680  181.0100 H   0  0  0  0  0  0  0  0  0  0  0  0
  129.1420  161.9220  182.9960 H   0  0  0  0  0  0  0  0  0  0  0  0
  130.4080  159.6070  179.2730 H   0  0  0  0  0  0  0  0  0  0  0  0
  129.8910  164.2180  178.2720 H   0  0  0  0  0  0  0  0  0  0  0  0
  130.7560  163.9580  179.5430 H   0  0  0  0  0  0  0  0  0  0  0  0
  130.7110  163.9260  176.0660 H   0  0  0  0  0  0  0  0  0  0  0  0
  132.2180  163.6890  175.7380 H   0  0  0  0  0  0  0  0  0  0  0  0
  130.3740  161.7040  175.9640 H   0  0  0  0  0  0  0  0  0  0  0  0
  131.8990  161.4630  175.7440 H   0  0  0  0  0  0  0  0  0  0  0  0
  2  4  1  0  0  0  0
  3  6  1  0  0  0  0
  4  6  1  0  0  0  0
  6  7  1  0  0  0  0
  7  8  1  0  0  0  0
  2  9  1  0  0  0  0
  3  9  1  0  0  0  0
  8  9  1  0  0  0  0
  2 10  1  0  0  0  0
 10 11  2  0  0  0  0
 11 12  1  0  0  0  0
  1 13  1  0  0  0  0
  5 13  1  0  0  0  0
 12 13  2  0  0  0  0
  5 14  2  0  0  0  0
 10 14  1  0  0  0  0
  3 15  1  0  0  0  0
  2 16  1  0  0  0  0
  6 17  1  0  0  0  0
  9 18  1  0  0  0  0
 11 19  1  0  0  0  0
 12 20  1  0  0  0  0
 14 21  1  0  0  0  0
  4 22  1  0  0  0  0
  4 23  1  0  0  0  0
  7 24  1  0  0  0  0
  7 25  1  0  0  0  0
  8 26  1  0  0  0  0
  8 27  1  0  0  0  0
M  END
$$$$
