8UT1
  PyMOL3.1          3D                             0

 27 29  0  0  0  0  0  0  0  0999 V2000
  157.6740  126.2670  183.6630 Cl  0  0  0  0  0  0  0  0  0  0  0  0
  158.6170  123.3020  178.5800 C   0  0  0  0  0  0  0  0  0  0  0  0
  156.9530  121.7150  178.2150 N   0  0  0  0  0  0  0  0  0  0  0  0
  159.2030  121.8690  178.6380 C   0  0  0  0  0  0  0  0  0  0  0  0
  157.2190  125.6870  181.1660 N   0  0  0  0  0  0  0  0  0  0  0  0
  158.2070  121.0910  177.7880 C   0  0  0  0  0  0  0  0  0  0  0  0
  158.3370  121.5190  176.3400 C   0  0  0  0  0  0  0  0  0  0  0  0
  157.6500  122.8800  176.3060 C   0  0  0  0  0  0  0  0  0  0  0  0
  157.3130  123.0780  177.7860 C   0  0  0  0  0  0  0  0  0  0  0  0
  158.3580  123.9710  179.9140 C   0  0  0  0  0  0  0  0  0  0  0  0
  159.0840  123.6510  181.0480 C   0  0  0  0  0  0  0  0  0  0  0  0
  158.8810  124.3360  182.2290 C   0  0  0  0  0  0  0  0  0  0  0  0
  157.9450  125.3420  182.2150 C   0  0  0  0  0  0  0  0  0  0  0  0
  157.4530  125.0090  180.0340 C   0  0  0  0  0  0  0  0  0  0  0  0
  156.8070  121.6480  179.0600 H   0  0  0  0  0  0  0  0  0  0  0  0
  159.2470  123.9220  178.1820 H   0  0  0  0  0  0  0  0  0  0  0  0
  158.2980  120.1280  177.8710 H   0  0  0  0  0  0  0  0  0  0  0  0
  156.6680  123.7920  177.9130 H   0  0  0  0  0  0  0  0  0  0  0  0
  159.7140  122.9680  181.0140 H   0  0  0  0  0  0  0  0  0  0  0  0
  159.3570  124.1260  183.0000 H   0  0  0  0  0  0  0  0  0  0  0  0
  156.9720  125.2550  179.2760 H   0  0  0  0  0  0  0  0  0  0  0  0
  160.1020  121.8280  178.2750 H   0  0  0  0  0  0  0  0  0  0  0  0
  159.2490  121.5300  179.5460 H   0  0  0  0  0  0  0  0  0  0  0  0
  159.2670  121.5820  176.0690 H   0  0  0  0  0  0  0  0  0  0  0  0
  157.9080  120.8880  175.7410 H   0  0  0  0  0  0  0  0  0  0  0  0
  158.2330  123.5770  175.9670 H   0  0  0  0  0  0  0  0  0  0  0  0
  156.8570  122.8760  175.7470 H   0  0  0  0  0  0  0  0  0  0  0  0
  2  4  1  0  0  0  0
  3  6  1  0  0  0  0
  4  6  1  0  0  0  0
  6  7  1  0  0  0  0
  7  8  1  0  0  0  0
  2  9  1  0  0  0  0
  3  9  1  0  0  0  0
  8  9  1  0  0  0  0
  2 10  1  0  0  0  0
 10 11  2  0  0  0  0
 11 12  1  0  0  0  0
  1 13  1  0  0  0  0
  5 13  1  0  0  0  0
 12 13  2  0  0  0  0
  5 14  2  0  0  0  0
 10 14  1  0  0  0  0
  3 15  1  0  0  0  0
  2 16  1  0  0  0  0
  6 17  1  0  0  0  0
  9 18  1  0  0  0  0
 11 19  1  0  0  0  0
 12 20  1  0  0  0  0
 14 21  1  0  0  0  0
  4 22  1  0  0  0  0
  4 23  1  0  0  0  0
  7 24  1  0  0  0  0
  7 25  1  0  0  0  0
  8 26  1  0  0  0  0
  8 27  1  0  0  0  0
M  END
$$$$
