8UT1
  PyMOL3.1          3D                             0

 27 29  0  0  0  0  0  0  0  0999 V2000
  132.8950  115.8370  183.6560 Cl  0  0  0  0  0  0  0  0  0  0  0  0
  130.3660  114.0250  178.5730 C   0  0  0  0  0  0  0  0  0  0  0  0
  128.3430  115.1180  178.2080 N   0  0  0  0  0  0  0  0  0  0  0  0
  129.1840  113.0250  178.6310 C   0  0  0  0  0  0  0  0  0  0  0  0
  132.2030  116.0910  181.1590 N   0  0  0  0  0  0  0  0  0  0  0  0
  128.1370  113.7330  177.7810 C   0  0  0  0  0  0  0  0  0  0  0  0
  128.5840  113.7410  176.3330 C   0  0  0  0  0  0  0  0  0  0  0  0
  129.6660  114.8150  176.3000 C   0  0  0  0  0  0  0  0  0  0  0  0
  129.7500  115.1970  177.7800 C   0  0  0  0  0  0  0  0  0  0  0  0
  130.9220  114.4780  179.9070 C   0  0  0  0  0  0  0  0  0  0  0  0
  130.8420  113.6890  181.0400 C   0  0  0  0  0  0  0  0  0  0  0  0
  131.4310  114.0920  182.2220 C   0  0  0  0  0  0  0  0  0  0  0  0
  132.0990  115.2930  182.2080 C   0  0  0  0  0  0  0  0  0  0  0  0
  131.6310  115.6600  180.0280 C   0  0  0  0  0  0  0  0  0  0  0  0
  128.2340  115.2360  179.0530 H   0  0  0  0  0  0  0  0  0  0  0  0
  131.1510  113.6170  178.1740 H   0  0  0  0  0  0  0  0  0  0  0  0
  127.2490  113.3490  177.8640 H   0  0  0  0  0  0  0  0  0  0  0  0
  130.2310  116.0300  177.9070 H   0  0  0  0  0  0  0  0  0  0  0  0
  130.3880  112.8790  181.0060 H   0  0  0  0  0  0  0  0  0  0  0  0
  131.3790  113.5750  182.9920 H   0  0  0  0  0  0  0  0  0  0  0  0
  131.7160  116.1930  179.2700 H   0  0  0  0  0  0  0  0  0  0  0  0
  129.4230  112.1580  178.2680 H   0  0  0  0  0  0  0  0  0  0  0  0
  128.8760  112.8770  179.5390 H   0  0  0  0  0  0  0  0  0  0  0  0
  128.9310  112.8770  176.0620 H   0  0  0  0  0  0  0  0  0  0  0  0
  127.8510  113.9540  175.7340 H   0  0  0  0  0  0  0  0  0  0  0  0
  130.5100  114.4760  175.9610 H   0  0  0  0  0  0  0  0  0  0  0  0
  129.4180  115.5680  175.7410 H   0  0  0  0  0  0  0  0  0  0  0  0
  2  4  1  0  0  0  0
  3  6  1  0  0  0  0
  4  6  1  0  0  0  0
  6  7  1  0  0  0  0
  7  8  1  0  0  0  0
  2  9  1  0  0  0  0
  3  9  1  0  0  0  0
  8  9  1  0  0  0  0
  2 10  1  0  0  0  0
 10 11  2  0  0  0  0
 11 12  1  0  0  0  0
  1 13  1  0  0  0  0
  5 13  1  0  0  0  0
 12 13  2  0  0  0  0
  5 14  2  0  0  0  0
 10 14  1  0  0  0  0
  3 15  1  0  0  0  0
  2 16  1  0  0  0  0
  6 17  1  0  0  0  0
  9 18  1  0  0  0  0
 11 19  1  0  0  0  0
 12 20  1  0  0  0  0
 14 21  1  0  0  0  0
  4 22  1  0  0  0  0
  4 23  1  0  0  0  0
  7 24  1  0  0  0  0
  7 25  1  0  0  0  0
  8 26  1  0  0  0  0
  8 27  1  0  0  0  0
M  END
$$$$
