8YKV
  PyMOL3.1          3D                             0

 28 29  0  0  0  0  0  0  0  0999 V2000
  118.0250   97.5660   71.1430 C   0  0  0  0  0  0  0  0  0  0  0  0
  118.4240   97.5720   69.8150 C   0  0  0  0  0  0  0  0  0  0  0  0
  117.6470   97.0040   68.8620 C   0  0  0  0  0  0  0  0  0  0  0  0
  116.5250   96.4670   69.1940 N   0  0  0  0  0  0  0  0  0  0  0  0
  116.1320   96.4870   70.4400 C   0  0  0  0  0  0  0  0  0  0  0  0
  116.8320   97.0000   71.4980 C   0  0  0  0  0  0  0  0  0  0  0  0
  114.8300   95.8250   70.6780 C   0  0  0  0  0  0  0  0  0  0  0  0
  114.9050   94.6660   70.6310 O   0  0  0  0  0  0  0  0  0  0  0  0
  113.5800   96.5380   70.8360 N   0  0  0  0  0  0  0  0  0  0  0  0
  113.4600   97.9820   70.8790 C   0  0  0  0  0  0  0  0  0  0  0  0
  113.1940   98.6970   69.5530 C   0  0  0  0  0  0  0  0  0  0  0  0
  113.5050  100.1910   69.7020 C   0  0  0  0  0  0  0  0  0  0  0  0
  113.2890  101.0130   68.7820 O   0  0  0  0  0  0  0  0  0  0  0  0
  113.9820  100.6160   70.7790 O   0  0  0  0  0  0  0  0  0  0  0  0
  112.3140   98.1210   71.8360 C   0  0  0  0  0  0  0  0  0  0  0  0
  112.2880   97.3180   72.7940 O   0  0  0  0  0  0  0  0  0  0  0  0
  111.4230   98.9920   71.6700 O   0  0  0  0  0  0  0  0  0  0  0  0
  118.0850   96.9880   67.4170 C   0  0  0  0  0  0  0  0  0  0  0  0
  117.7610   95.8730   66.6730 C   0  0  0  0  0  0  0  0  0  0  0  0
  118.1380   95.8100   65.3500 C   0  0  0  0  0  0  0  0  0  0  0  0
  118.8380   96.8650   64.7970 C   0  0  0  0  0  0  0  0  0  0  0  0
  119.1660   97.9870   65.5440 C   0  0  0  0  0  0  0  0  0  0  0  0
  118.7870   98.0480   66.8730 C   0  0  0  0  0  0  0  0  0  0  0  0
  119.2140   96.7870   63.4630 O   0  0  0  0  0  0  0  0  0  0  0  0
  119.3850   98.0420   62.9000 C   0  0  0  0  0  0  0  0  0  0  0  0
  120.3230   97.9520   61.9120 F   0  0  0  0  0  0  0  0  0  0  0  0
  118.1940   98.4620   62.3810 F   0  0  0  0  0  0  0  0  0  0  0  0
  119.7900   98.9000   63.8810 F   0  0  0  0  0  0  0  0  0  0  0  0
  1  2  2  0  0  0  0
  2  3  1  0  0  0  0
  3  4  2  0  0  0  0
  4  5  1  0  0  0  0
  1  6  1  0  0  0  0
  5  6  2  0  0  0  0
  5  7  1  0  0  0  0
  7  8  2  0  0  0  0
  7  9  1  0  0  0  0
  9 10  1  0  0  0  0
 10 11  1  0  0  0  0
 11 12  1  0  0  0  0
 12 13  2  0  0  0  0
 12 14  1  0  0  0  0
 10 15  1  0  0  0  0
 15 16  1  0  0  0  0
 15 17  2  0  0  0  0
  3 18  1  0  0  0  0
 18 19  2  0  0  0  0
 19 20  1  0  0  0  0
 20 21  2  0  0  0  0
 21 22  1  0  0  0  0
 18 23  1  0  0  0  0
 22 23  2  0  0  0  0
 21 24  1  0  0  0  0
 24 25  1  0  0  0  0
 25 26  1  0  0  0  0
 25 27  1  0  0  0  0
 25 28  1  0  0  0  0
M  END
$$$$
