7LEK
  PyMOL3.1          3D                             0

 47 53  0  0  0  0  0  0  0  0999 V2000
   15.3120  -34.4850    6.6780 C   0  0  0  0  0  0  0  0  0  0  0  0
   15.4370  -33.0050    7.2380 C   0  0  0  0  0  0  0  0  0  0  0  0
   14.1500  -32.6300    7.7810 O   0  0  0  0  0  0  0  0  0  0  0  0
   14.1140  -31.3910    8.5190 C   0  0  0  0  0  0  0  0  0  0  0  0
   13.7800  -31.4420    9.9300 C   0  0  0  0  0  0  0  0  0  0  0  0
   13.7200  -30.2690   10.6660 C   0  0  0  0  0  0  0  0  0  0  0  0
   14.0010  -28.9800   10.0360 C   0  0  0  0  0  0  0  0  0  0  0  0
   14.3280  -28.9510    8.6890 C   0  0  0  0  0  0  0  0  0  0  0  0
   14.6270  -27.6240    7.9460 C   0  0  0  0  0  0  0  0  0  0  0  0
   15.9600  -27.4190    7.3050 N   0  0  0  0  0  0  0  0  0  0  0  0
   16.3250  -26.2090    6.5640 C   0  0  0  0  0  0  0  0  0  0  0  0
   16.6620  -26.6300    5.1870 C   0  0  0  0  0  0  0  0  0  0  0  0
   17.9960  -27.3410    5.1190 C   0  0  0  0  0  0  0  0  0  0  0  0
   18.4110  -28.3170    4.3580 N   0  0  0  0  0  0  0  0  0  0  0  0
   17.5160  -28.7340    3.4560 C   0  0  0  0  0  0  0  0  0  0  0  0
   17.6080  -27.9960    2.0920 C   0  0  0  0  0  0  0  0  0  0  0  0
   18.9130  -27.8770    1.6290 N   0  0  0  0  0  0  0  0  0  0  0  0
   19.7030  -27.2910    2.5320 C   0  0  0  0  0  0  0  0  0  0  0  0
   19.6960  -28.0690    3.8640 C   0  0  0  0  0  0  0  0  0  0  0  0
   18.9240  -27.2220    0.5830 C   0  0  0  0  0  0  0  0  0  0  0  0
   18.2340  -28.2260    6.3390 C   0  0  0  0  0  0  0  0  0  0  0  0
   17.0520  -28.4280    7.3620 C   0  0  0  0  0  0  0  0  0  0  0  0
   13.7620  -26.7760    7.8660 O   0  0  0  0  0  0  0  0  0  0  0  0
   14.3760  -30.1760    7.9190 C   0  0  0  0  0  0  0  0  0  0  0  0
   13.5110  -32.8060   10.4560 N   0  0  0  0  0  0  0  0  0  0  0  0
   13.5060  -33.1440   11.9160 C   0  0  0  0  0  0  0  0  0  0  0  0
   13.2900  -34.4690   12.3380 N   0  0  0  0  0  0  0  0  0  0  0  0
   13.2850  -34.7670   13.6130 C   0  0  0  0  0  0  0  0  0  0  0  0
   13.4920  -33.7380   14.5330 C   0  0  0  0  0  0  0  0  0  0  0  0
   13.4930  -34.0190   15.9710 N   0  0  0  0  0  0  0  0  0  0  0  0
   14.2530  -33.4600   16.9950 C   0  0  0  0  0  0  0  0  0  0  0  0
   15.2770  -32.3710   16.7710 C   0  0  0  0  0  0  0  0  0  0  0  0
   15.1270  -31.2910   15.9060 C   0  0  0  0  0  0  0  0  0  0  0  0
   13.9610  -31.1870   15.0770 N   0  0  0  0  0  0  0  0  0  0  0  0
   13.6730  -32.3930   14.0470 C   0  0  0  0  0  0  0  0  0  0  0  0
   13.7080  -32.1860   12.7450 N   0  0  0  0  0  0  0  0  0  0  0  0
   12.9350  -30.1410   15.4000 C   0  0  0  0  0  0  0  0  0  0  0  0
   13.1280  -28.5420   15.6820 C   0  0  0  0  0  0  0  0  0  0  0  0
   11.9810  -27.9730   15.2520 C   0  0  0  0  0  0  0  0  0  0  0  0
   11.1590  -29.1170   14.3270 C   0  0  0  0  0  0  0  0  0  0  0  0
   12.0730  -30.1210   14.0740 C   0  0  0  0  0  0  0  0  0  0  0  0
   16.1760  -30.3170   15.7600 C   0  0  0  0  0  0  0  0  0  0  0  0
   17.3940  -30.4600   16.5910 C   0  0  0  0  0  0  0  0  0  0  0  0
   17.5310  -31.5520   17.5000 C   0  0  0  0  0  0  0  0  0  0  0  0
   16.5120  -32.5110   17.6170 C   0  0  0  0  0  0  0  0  0  0  0  0
   14.0890  -33.8440   18.0610 O   0  0  0  0  0  0  0  0  0  0  0  0
   12.5270  -35.0990   16.3990 C   0  0  0  0  0  0  0  0  0  0  0  0
  1  2  1  0  0  0  0
  2  3  1  0  0  0  0
  3  4  1  0  0  0  0
  4  5  1  0  0  0  0
  5  6  2  0  0  0  0
  6  7  1  0  0  0  0
  7  8  2  0  0  0  0
  8  9  1  0  0  0  0
  9 10  1  0  0  0  0
 10 11  1  0  0  0  0
 11 12  1  0  0  0  0
 12 13  1  0  0  0  0
 13 14  1  0  0  0  0
 14 15  1  0  0  0  0
 15 16  1  0  0  0  0
 16 17  1  0  0  0  0
 17 18  1  0  0  0  0
 14 19  1  0  0  0  0
 18 19  1  0  0  0  0
 17 20  1  0  0  0  0
 13 21  1  0  0  0  0
 10 22  1  0  0  0  0
 21 22  1  0  0  0  0
  9 23  2  0  0  0  0
  4 24  2  0  0  0  0
  8 24  1  0  0  0  0
  5 25  1  0  0  0  0
 25 26  1  0  0  0  0
 26 27  1  0  0  0  0
 27 28  2  0  0  0  0
 28 29  1  0  0  0  0
 29 30  1  0  0  0  0
 30 31  1  0  0  0  0
 31 32  1  0  0  0  0
 32 33  1  0  0  0  0
 33 34  1  0  0  0  0
 29 35  2  0  0  0  0
 34 35  1  0  0  0  0
 26 36  2  0  0  0  0
 35 36  1  0  0  0  0
 34 37  1  0  0  0  0
 37 38  1  0  0  0  0
 38 39  1  0  0  0  0
 39 40  1  0  0  0  0
 37 41  1  0  0  0  0
 40 41  1  0  0  0  0
 33 42  2  0  0  0  0
 42 43  1  0  0  0  0
 43 44  2  0  0  0  0
 32 45  2  0  0  0  0
 44 45  1  0  0  0  0
 31 46  2  0  0  0  0
 30 47  1  0  0  0  0
M  END
$$$$
