7LEK
  PyMOL3.1          3D                             0

 47 53  0  0  0  0  0  0  0  0999 V2000
   21.8720   -1.7020   17.1980 C   0  0  0  0  0  0  0  0  0  0  0  0
   22.5370   -0.8060   16.0680 C   0  0  0  0  0  0  0  0  0  0  0  0
   21.8870   -1.1240   14.8120 O   0  0  0  0  0  0  0  0  0  0  0  0
   21.8040   -0.0360   13.8660 C   0  0  0  0  0  0  0  0  0  0  0  0
   22.4720   -0.1820   12.5790 C   0  0  0  0  0  0  0  0  0  0  0  0
   22.4130    0.8460   11.6620 C   0  0  0  0  0  0  0  0  0  0  0  0
   21.6770    2.0670   11.9540 C   0  0  0  0  0  0  0  0  0  0  0  0
   21.0360    2.1910   13.1690 C   0  0  0  0  0  0  0  0  0  0  0  0
   20.2720    3.4990   13.4910 C   0  0  0  0  0  0  0  0  0  0  0  0
   18.9540    3.8460   12.8920 N   0  0  0  0  0  0  0  0  0  0  0  0
   18.1790    3.0110   11.9710 C   0  0  0  0  0  0  0  0  0  0  0  0
   16.9560    2.5460   12.6650 C   0  0  0  0  0  0  0  0  0  0  0  0
   16.1510    3.6020   13.4010 C   0  0  0  0  0  0  0  0  0  0  0  0
   15.5220    3.4960   14.5300 N   0  0  0  0  0  0  0  0  0  0  0  0
   14.3070    4.0500   14.4390 C   0  0  0  0  0  0  0  0  0  0  0  0
   13.3480    3.7090   15.6110 C   0  0  0  0  0  0  0  0  0  0  0  0
   13.9420    2.8390   16.5090 N   0  0  0  0  0  0  0  0  0  0  0  0
   14.4050    1.7640   15.8710 C   0  0  0  0  0  0  0  0  0  0  0  0
   15.5840    2.1700   14.9670 C   0  0  0  0  0  0  0  0  0  0  0  0
   13.1630    2.5230   17.4100 C   0  0  0  0  0  0  0  0  0  0  0  0
   16.9840    4.6940   14.0580 C   0  0  0  0  0  0  0  0  0  0  0  0
   18.2540    5.0990   13.2390 C   0  0  0  0  0  0  0  0  0  0  0  0
   20.7860    4.2890   14.2560 O   0  0  0  0  0  0  0  0  0  0  0  0
   21.1030    1.1260   14.1500 C   0  0  0  0  0  0  0  0  0  0  0  0
   23.2090   -1.4520   12.3300 N   0  0  0  0  0  0  0  0  0  0  0  0
   23.9240   -1.7460   11.0380 C   0  0  0  0  0  0  0  0  0  0  0  0
   24.2490   -3.0810   10.7220 N   0  0  0  0  0  0  0  0  0  0  0  0
   24.8560   -3.3940    9.6080 C   0  0  0  0  0  0  0  0  0  0  0  0
   25.1930   -2.3600    8.7470 C   0  0  0  0  0  0  0  0  0  0  0  0
   25.9020   -2.6560    7.5040 N   0  0  0  0  0  0  0  0  0  0  0  0
   25.7870   -2.0840    6.2470 C   0  0  0  0  0  0  0  0  0  0  0  0
   24.8040   -0.9730    5.9650 C   0  0  0  0  0  0  0  0  0  0  0  0
   24.5620    0.1030    6.8120 C   0  0  0  0  0  0  0  0  0  0  0  0
   25.2260    0.1750    8.0840 N   0  0  0  0  0  0  0  0  0  0  0  0
   24.8700   -1.0040    9.1190 C   0  0  0  0  0  0  0  0  0  0  0  0
   24.2230   -0.7670   10.2490 N   0  0  0  0  0  0  0  0  0  0  0  0
   25.6270    1.5310    8.5800 C   0  0  0  0  0  0  0  0  0  0  0  0
   24.8580    2.6120    9.5420 C   0  0  0  0  0  0  0  0  0  0  0  0
   25.8170    3.0840   10.3710 C   0  0  0  0  0  0  0  0  0  0  0  0
   27.2190    2.1890   10.1060 C   0  0  0  0  0  0  0  0  0  0  0  0
   26.7920    1.0210    9.5110 C   0  0  0  0  0  0  0  0  0  0  0  0
   23.5870    1.1050    6.4590 C   0  0  0  0  0  0  0  0  0  0  0  0
   22.8900    0.9930    5.1560 C   0  0  0  0  0  0  0  0  0  0  0  0
   23.1660   -0.1060    4.2800 C   0  0  0  0  0  0  0  0  0  0  0  0
   24.0970   -1.0910    4.6400 C   0  0  0  0  0  0  0  0  0  0  0  0
   26.4570   -2.4760    5.4050 O   0  0  0  0  0  0  0  0  0  0  0  0
   26.9300   -3.7550    7.6390 C   0  0  0  0  0  0  0  0  0  0  0  0
  1  2  1  0  0  0  0
  2  3  1  0  0  0  0
  3  4  1  0  0  0  0
  4  5  1  0  0  0  0
  5  6  2  0  0  0  0
  6  7  1  0  0  0  0
  7  8  2  0  0  0  0
  8  9  1  0  0  0  0
  9 10  1  0  0  0  0
 10 11  1  0  0  0  0
 11 12  1  0  0  0  0
 12 13  1  0  0  0  0
 13 14  1  0  0  0  0
 14 15  1  0  0  0  0
 15 16  1  0  0  0  0
 16 17  1  0  0  0  0
 17 18  1  0  0  0  0
 14 19  1  0  0  0  0
 18 19  1  0  0  0  0
 17 20  1  0  0  0  0
 13 21  1  0  0  0  0
 10 22  1  0  0  0  0
 21 22  1  0  0  0  0
  9 23  2  0  0  0  0
  4 24  2  0  0  0  0
  8 24  1  0  0  0  0
  5 25  1  0  0  0  0
 25 26  1  0  0  0  0
 26 27  1  0  0  0  0
 27 28  2  0  0  0  0
 28 29  1  0  0  0  0
 29 30  1  0  0  0  0
 30 31  1  0  0  0  0
 31 32  1  0  0  0  0
 32 33  1  0  0  0  0
 33 34  1  0  0  0  0
 29 35  2  0  0  0  0
 34 35  1  0  0  0  0
 26 36  2  0  0  0  0
 35 36  1  0  0  0  0
 34 37  1  0  0  0  0
 37 38  1  0  0  0  0
 38 39  1  0  0  0  0
 39 40  1  0  0  0  0
 37 41  1  0  0  0  0
 40 41  1  0  0  0  0
 33 42  2  0  0  0  0
 42 43  1  0  0  0  0
 43 44  2  0  0  0  0
 32 45  2  0  0  0  0
 44 45  1  0  0  0  0
 31 46  2  0  0  0  0
 30 47  1  0  0  0  0
M  END
$$$$
