7UN4
  PyMOL3.1          3D                             0

 21 23  0  0  0  0  0  0  0  0999 V2000
   -6.5079    1.7707    2.7634 C   0  0  0  0  0  0  0  0  0  0  0  0
   -7.7365    1.8682    3.7039 C   0  0  0  0  0  0  0  0  0  0  0  0
   -7.5878    3.1293    4.5916 C   0  0  0  0  0  0  0  0  0  0  0  0
   -9.0157    1.9805    2.8544 C   0  0  0  0  0  0  0  0  0  0  0  0
   -7.8805    0.6088    4.5848 C   0  0  0  0  0  0  0  0  0  0  0  0
   -7.3854   -0.4482    4.1178 O   0  0  0  0  0  0  0  0  0  0  0  0
   -8.5639    0.5220    5.9436 C   0  0  0  0  0  0  0  0  0  0  0  0
   -8.3686   -1.1143    6.9058 S   0  0  0  0  0  0  0  0  0  0  0  0
   -6.7248   -1.2798    7.7060 C   0  0  0  0  0  0  0  0  0  0  0  0
   -6.5734   -2.0718    8.7946 N   0  0  0  0  0  0  0  0  0  0  0  0
   -5.3272   -2.1853    9.3870 C   0  0  0  0  0  0  0  0  0  0  0  0
   -4.2140   -1.4518    8.8527 C   0  0  0  0  0  0  0  0  0  0  0  0
   -2.8056   -1.5307    9.4544 C   0  0  0  0  0  0  0  0  0  0  0  0
   -1.7005   -1.2245    8.3921 C   0  0  0  0  0  0  0  0  0  0  0  0
   -2.0821   -0.1537    7.4036 C   0  0  0  0  0  0  0  0  0  0  0  0
   -1.1485    1.0028    6.4152 S   0  0  0  0  0  0  0  0  0  0  0  0
   -2.4983    1.7987    5.6107 C   0  0  0  0  0  0  0  0  0  0  0  0
   -3.6529    1.1743    6.1082 C   0  0  0  0  0  0  0  0  0  0  0  0
   -3.4172    0.1160    7.0930 C   0  0  0  0  0  0  0  0  0  0  0  0
   -4.4508   -0.6549    7.7266 C   0  0  0  0  0  0  0  0  0  0  0  0
   -5.6996   -0.5576    7.1525 N   0  0  0  0  0  0  0  0  0  0  0  0
  1  2  1  0  0  0  0
  2  3  1  0  0  0  0
  2  4  1  0  0  0  0
  2  5  1  0  0  0  0
  5  6  2  0  0  0  0
  5  7  1  0  0  0  0
  7  8  1  0  0  0  0
  8  9  1  0  0  0  0
  9 10  1  0  0  0  0
 10 11  2  0  0  0  0
 11 12  1  0  0  0  0
 12 13  1  0  0  0  0
 13 14  1  0  0  0  0
 14 15  1  0  0  0  0
 15 16  1  0  0  0  0
 16 17  1  0  0  0  0
 17 18  2  0  0  0  0
 15 19  2  0  0  0  0
 18 19  1  0  0  0  0
 12 20  2  0  0  0  0
 19 20  1  0  0  0  0
  9 21  2  0  0  0  0
 20 21  1  0  0  0  0
M  END
$$$$
