7UN4
  PyMOL3.1          3D                             0

 21 23  0  0  0  0  0  0  0  0999 V2000
  -30.7827   23.1290  -29.7810 C   0  0  0  0  0  0  0  0  0  0  0  0
  -31.1784   23.1322  -28.2765 C   0  0  0  0  0  0  0  0  0  0  0  0
  -31.7011   21.7266  -27.8953 C   0  0  0  0  0  0  0  0  0  0  0  0
  -29.9342   23.4630  -27.4319 C   0  0  0  0  0  0  0  0  0  0  0  0
  -32.2573   24.1996  -27.9596 C   0  0  0  0  0  0  0  0  0  0  0  0
  -31.8598   25.2216  -27.3422 O   0  0  0  0  0  0  0  0  0  0  0  0
  -33.7391   24.1169  -28.3269 C   0  0  0  0  0  0  0  0  0  0  0  0
  -34.6999   25.7549  -28.4965 S   0  0  0  0  0  0  0  0  0  0  0  0
  -34.7077   26.4358  -30.2250 C   0  0  0  0  0  0  0  0  0  0  0  0
  -35.6507   27.3341  -30.5992 N   0  0  0  0  0  0  0  0  0  0  0  0
  -35.6454   27.8302  -31.8914 C   0  0  0  0  0  0  0  0  0  0  0  0
  -34.6509   27.3981  -32.8301 C   0  0  0  0  0  0  0  0  0  0  0  0
  -34.6110   27.9188  -34.2766 C   0  0  0  0  0  0  0  0  0  0  0  0
  -33.2173   27.6780  -35.0035 C   0  0  0  0  0  0  0  0  0  0  0  0
  -32.4066   26.5202  -34.4853 C   0  0  0  0  0  0  0  0  0  0  0  0
  -31.0391   25.5805  -35.1660 S   0  0  0  0  0  0  0  0  0  0  0  0
  -30.8227   24.4834  -33.8115 C   0  0  0  0  0  0  0  0  0  0  0  0
  -31.7895   24.8422  -32.8595 C   0  0  0  0  0  0  0  0  0  0  0  0
  -32.6523   25.9520  -33.2294 C   0  0  0  0  0  0  0  0  0  0  0  0
  -33.7077   26.4683  -32.3808 C   0  0  0  0  0  0  0  0  0  0  0  0
  -33.7297   25.9816  -31.0780 N   0  0  0  0  0  0  0  0  0  0  0  0
  1  2  1  0  0  0  0
  2  3  1  0  0  0  0
  2  4  1  0  0  0  0
  2  5  1  0  0  0  0
  5  6  2  0  0  0  0
  5  7  1  0  0  0  0
  7  8  1  0  0  0  0
  8  9  1  0  0  0  0
  9 10  1  0  0  0  0
 10 11  2  0  0  0  0
 11 12  1  0  0  0  0
 12 13  1  0  0  0  0
 13 14  1  0  0  0  0
 14 15  1  0  0  0  0
 15 16  1  0  0  0  0
 16 17  1  0  0  0  0
 17 18  2  0  0  0  0
 15 19  2  0  0  0  0
 18 19  1  0  0  0  0
 12 20  2  0  0  0  0
 19 20  1  0  0  0  0
  9 21  2  0  0  0  0
 20 21  1  0  0  0  0
M  END
$$$$
