7UN4
  PyMOL3.1          3D                             0

 21 23  0  0  0  0  0  0  0  0999 V2000
   -0.8860   55.9470   -8.5074 C   0  0  0  0  0  0  0  0  0  0  0  0
   -0.8072   54.7857   -7.4751 C   0  0  0  0  0  0  0  0  0  0  0  0
   -2.2480   54.3303   -7.1310 C   0  0  0  0  0  0  0  0  0  0  0  0
   -0.0244   53.6060   -8.0945 C   0  0  0  0  0  0  0  0  0  0  0  0
   -0.0713   55.2127   -6.1831 C   0  0  0  0  0  0  0  0  0  0  0  0
    1.1750   55.3610   -6.2769 O   0  0  0  0  0  0  0  0  0  0  0  0
   -0.7144   55.4633   -4.8258 C   0  0  0  0  0  0  0  0  0  0  0  0
    0.3505   56.3255   -3.5001 S   0  0  0  0  0  0  0  0  0  0  0  0
    0.0923   58.1642   -3.4095 C   0  0  0  0  0  0  0  0  0  0  0  0
    0.4175   58.8340   -2.2786 N   0  0  0  0  0  0  0  0  0  0  0  0
    0.2216   60.2012   -2.2124 C   0  0  0  0  0  0  0  0  0  0  0  0
   -0.3251   60.9094   -3.3307 C   0  0  0  0  0  0  0  0  0  0  0  0
   -0.5602   62.4278   -3.2964 C   0  0  0  0  0  0  0  0  0  0  0  0
   -0.7097   63.0654   -4.7382 C   0  0  0  0  0  0  0  0  0  0  0  0
   -1.2409   62.1520   -5.8026 C   0  0  0  0  0  0  0  0  0  0  0  0
   -1.9992   62.4474   -7.3927 S   0  0  0  0  0  0  0  0  0  0  0  0
   -2.2458   60.7685   -7.8450 C   0  0  0  0  0  0  0  0  0  0  0  0
   -1.7505   60.0022   -6.7781 C   0  0  0  0  0  0  0  0  0  0  0  0
   -1.2035   60.7606   -5.6648 C   0  0  0  0  0  0  0  0  0  0  0  0
   -0.6441   60.1606   -4.4705 C   0  0  0  0  0  0  0  0  0  0  0  0
   -0.4383   58.7848   -4.5181 N   0  0  0  0  0  0  0  0  0  0  0  0
  1  2  1  0  0  0  0
  2  3  1  0  0  0  0
  2  4  1  0  0  0  0
  2  5  1  0  0  0  0
  5  6  2  0  0  0  0
  5  7  1  0  0  0  0
  7  8  1  0  0  0  0
  8  9  1  0  0  0  0
  9 10  1  0  0  0  0
 10 11  2  0  0  0  0
 11 12  1  0  0  0  0
 12 13  1  0  0  0  0
 13 14  1  0  0  0  0
 14 15  1  0  0  0  0
 15 16  1  0  0  0  0
 16 17  1  0  0  0  0
 17 18  2  0  0  0  0
 15 19  2  0  0  0  0
 18 19  1  0  0  0  0
 12 20  2  0  0  0  0
 19 20  1  0  0  0  0
  9 21  2  0  0  0  0
 20 21  1  0  0  0  0
M  END
$$$$
