7UN4
  PyMOL3.1          3D                             0

 21 23  0  0  0  0  0  0  0  0999 V2000
   -7.7648    7.1502  -41.3481 C   0  0  0  0  0  0  0  0  0  0  0  0
   -9.0312    7.8801  -41.8760 C   0  0  0  0  0  0  0  0  0  0  0  0
   -8.9903    7.8709  -43.4223 C   0  0  0  0  0  0  0  0  0  0  0  0
  -10.2876    7.1287  -41.3862 C   0  0  0  0  0  0  0  0  0  0  0  0
   -9.1264    9.3424  -41.3625 C   0  0  0  0  0  0  0  0  0  0  0  0
   -8.9485    9.5138  -40.1286 O   0  0  0  0  0  0  0  0  0  0  0  0
   -9.4196   10.5728  -42.2086 C   0  0  0  0  0  0  0  0  0  0  0  0
   -9.3500   12.2609  -41.3332 S   0  0  0  0  0  0  0  0  0  0  0  0
   -7.6270   12.7745  -40.8441 C   0  0  0  0  0  0  0  0  0  0  0  0
   -7.4126   13.9943  -40.2943 N   0  0  0  0  0  0  0  0  0  0  0  0
   -6.1299   14.3670  -39.9352 C   0  0  0  0  0  0  0  0  0  0  0  0
   -5.0308   13.4724  -40.1442 C   0  0  0  0  0  0  0  0  0  0  0  0
   -3.5894   13.8491  -39.7621 C   0  0  0  0  0  0  0  0  0  0  0  0
   -2.6130   12.5988  -39.6596 C   0  0  0  0  0  0  0  0  0  0  0  0
   -2.9992   11.4001  -40.4846 C   0  0  0  0  0  0  0  0  0  0  0  0
   -2.0935    9.9608  -41.0500 S   0  0  0  0  0  0  0  0  0  0  0  0
   -3.4121    9.1861  -41.9119 C   0  0  0  0  0  0  0  0  0  0  0  0
   -4.5244   10.0287  -41.7604 C   0  0  0  0  0  0  0  0  0  0  0  0
   -4.2970   11.2346  -40.9819 C   0  0  0  0  0  0  0  0  0  0  0  0
   -5.3180   12.2273  -40.7168 C   0  0  0  0  0  0  0  0  0  0  0  0
   -6.6146   11.8710  -41.0710 N   0  0  0  0  0  0  0  0  0  0  0  0
  1  2  1  0  0  0  0
  2  3  1  0  0  0  0
  2  4  1  0  0  0  0
  2  5  1  0  0  0  0
  5  6  2  0  0  0  0
  5  7  1  0  0  0  0
  7  8  1  0  0  0  0
  8  9  1  0  0  0  0
  9 10  1  0  0  0  0
 10 11  2  0  0  0  0
 11 12  1  0  0  0  0
 12 13  1  0  0  0  0
 13 14  1  0  0  0  0
 14 15  1  0  0  0  0
 15 16  1  0  0  0  0
 16 17  1  0  0  0  0
 17 18  2  0  0  0  0
 15 19  2  0  0  0  0
 18 19  1  0  0  0  0
 12 20  2  0  0  0  0
 19 20  1  0  0  0  0
  9 21  2  0  0  0  0
 20 21  1  0  0  0  0
M  END
$$$$
