7LPQ
  PyMOL3.1          3D                             0

 44 46  0  0  0  0  0  0  0  0999 V2000
  -24.7180    9.5850   56.7980 C   0  0  0  0  0  0  0  0  0  0  0  0
  -24.6130    8.9340   55.4380 N   0  0  0  0  0  0  0  0  0  0  0  0
  -25.4540    7.7360   55.4420 C   0  0  0  0  0  0  0  0  0  0  0  0
  -24.8010    6.7930   54.3290 C   0  0  0  0  0  0  0  0  0  0  0  0
  -24.8560    5.3320   54.5230 N   0  0  0  0  0  0  0  0  0  0  0  0
  -25.9470    4.5570   54.5590 C   0  0  0  0  0  0  0  0  0  0  0  0
  -27.0400    5.1420   54.4110 O   0  0  0  0  0  0  0  0  0  0  0  0
  -26.0150    3.0270   54.7500 C   0  0  0  0  0  0  0  0  0  0  0  0
  -26.5980    2.4810   56.0920 C   0  0  0  0  0  0  0  0  0  0  0  0
  -25.7890    1.9240   57.0930 C   0  0  0  0  0  0  0  0  0  0  0  0
  -26.3400    1.4330   58.3060 C   0  0  0  0  0  0  0  0  0  0  0  0
  -27.7480    1.4760   58.5770 C   0  0  0  0  0  0  0  0  0  0  0  0
  -28.5800    2.0350   57.5730 C   0  0  0  0  0  0  0  0  0  0  0  0
  -27.9900    2.5180   56.3670 C   0  0  0  0  0  0  0  0  0  0  0  0
  -29.9880    2.0840   57.8170 N   0  0  0  0  0  0  0  0  0  0  0  0
  -30.5780    1.5680   58.9660 C   0  0  0  0  0  0  0  0  0  0  0  0
  -31.8140    1.6010   59.1470 O   0  0  0  0  0  0  0  0  0  0  0  0
  -29.7310    0.8890   59.9480 C   0  0  0  0  0  0  0  0  0  0  0  0
  -28.2590    1.0070   59.7460 O   0  0  0  0  0  0  0  0  0  0  0  0
  -23.3480    7.3740   54.2760 C   0  0  0  0  0  0  0  0  0  0  0  0
  -23.2270    8.3230   55.3550 C   0  0  0  0  0  0  0  0  0  0  0  0
  -22.2680    9.4930   55.1820 C   0  0  0  0  0  0  0  0  0  0  0  0
  -22.0320    9.7300   53.7970 O   0  0  0  0  0  0  0  0  0  0  0  0
  -25.5960    9.4910   57.1160 H   0  0  0  0  0  0  0  0  0  0  0  0
  -24.5020   10.4960   56.7200 H   0  0  0  0  0  0  0  0  0  0  0  0
  -24.1190    9.1650   57.3870 H   0  0  0  0  0  0  0  0  0  0  0  0
  -26.3150    8.0720   55.2760 H   0  0  0  0  0  0  0  0  0  0  0  0
  -25.4180    7.4450   56.3340 H   0  0  0  0  0  0  0  0  0  0  0  0
  -25.2390    6.9610   53.5160 H   0  0  0  0  0  0  0  0  0  0  0  0
  -24.0360    5.0610   54.6110 H   0  0  0  0  0  0  0  0  0  0  0  0
  -25.1460    2.7200   54.5730 H   0  0  0  0  0  0  0  0  0  0  0  0
  -26.4690    2.7070   53.9930 H   0  0  0  0  0  0  0  0  0  0  0  0
  -24.8700    1.8730   56.9650 H   0  0  0  0  0  0  0  0  0  0  0  0
  -25.7520    1.0760   58.9310 H   0  0  0  0  0  0  0  0  0  0  0  0
  -28.5420    2.8810   55.7140 H   0  0  0  0  0  0  0  0  0  0  0  0
  -30.5230    2.4410   57.2470 H   0  0  0  0  0  0  0  0  0  0  0  0
  -30.0520    1.2320   60.7960 H   0  0  0  0  0  0  0  0  0  0  0  0
  -30.0680   -0.0210   59.9440 H   0  0  0  0  0  0  0  0  0  0  0  0
  -22.7140    6.6440   54.3570 H   0  0  0  0  0  0  0  0  0  0  0  0
  -23.2030    7.7830   53.4090 H   0  0  0  0  0  0  0  0  0  0  0  0
  -23.0320    7.9430   56.2260 H   0  0  0  0  0  0  0  0  0  0  0  0
  -21.4760    9.2350   55.6780 H   0  0  0  0  0  0  0  0  0  0  0  0
  -22.6990   10.2320   55.6390 H   0  0  0  0  0  0  0  0  0  0  0  0
  -21.7710   10.5330   53.7020 H   0  0  0  0  0  0  0  0  0  0  0  0
  1  2  1  0  0  0  0
  2  3  1  0  0  0  0
  3  4  1  0  0  0  0
  4  5  1  0  0  0  0
  5  6  1  0  0  0  0
  6  7  2  0  0  0  0
  6  8  1  0  0  0  0
  8  9  1  0  0  0  0
  9 10  2  0  0  0  0
 10 11  1  0  0  0  0
 11 12  2  0  0  0  0
 12 13  1  0  0  0  0
  9 14  1  0  0  0  0
 13 14  2  0  0  0  0
 13 15  1  0  0  0  0
 15 16  1  0  0  0  0
 16 17  2  0  0  0  0
 16 18  1  0  0  0  0
 12 19  1  0  0  0  0
 18 19  1  0  0  0  0
  4 20  1  0  0  0  0
  2 21  1  0  0  0  0
 20 21  1  0  0  0  0
 21 22  1  0  0  0  0
 22 23  1  0  0  0  0
  1 24  1  0  0  0  0
  1 25  1  0  0  0  0
  1 26  1  0  0  0  0
  3 27  1  0  0  0  0
  3 28  1  0  0  0  0
  4 29  1  0  0  0  0
  5 30  1  0  0  0  0
  8 31  1  0  0  0  0
  8 32  1  0  0  0  0
 10 33  1  0  0  0  0
 11 34  1  0  0  0  0
 14 35  1  0  0  0  0
 15 36  1  0  0  0  0
 18 37  1  0  0  0  0
 18 38  1  0  0  0  0
 20 39  1  0  0  0  0
 20 40  1  0  0  0  0
 21 41  1  0  0  0  0
 22 42  1  0  0  0  0
 22 43  1  0  0  0  0
 23 44  1  0  0  0  0
M  END
$$$$
