7LPQ
  PyMOL3.1          3D                             0

 44 46  0  0  0  0  0  0  0  0999 V2000
   36.8680   19.8470   69.0430 C   0  0  0  0  0  0  0  0  0  0  0  0
   36.0740   18.8710   69.8680 N   0  0  0  0  0  0  0  0  0  0  0  0
   36.0540   17.5740   69.1790 C   0  0  0  0  0  0  0  0  0  0  0  0
   34.6470   16.9330   69.5350 C   0  0  0  0  0  0  0  0  0  0  0  0
   33.8120   16.4030   68.4310 N   0  0  0  0  0  0  0  0  0  0  0  0
   34.1080   15.4120   67.5600 C   0  0  0  0  0  0  0  0  0  0  0  0
   35.2270   14.8640   67.6970 O   0  0  0  0  0  0  0  0  0  0  0  0
   33.2080   14.8590   66.4360 C   0  0  0  0  0  0  0  0  0  0  0  0
   33.7250   14.8280   64.9710 C   0  0  0  0  0  0  0  0  0  0  0  0
   33.1420   15.5890   63.9400 C   0  0  0  0  0  0  0  0  0  0  0  0
   33.6400   15.5380   62.6130 C   0  0  0  0  0  0  0  0  0  0  0  0
   34.7470   14.7190   62.2620 C   0  0  0  0  0  0  0  0  0  0  0  0
   35.3510   13.9470   63.2880 C   0  0  0  0  0  0  0  0  0  0  0  0
   34.8220   14.0190   64.6020 C   0  0  0  0  0  0  0  0  0  0  0  0
   36.4740   13.1170   62.9230 N   0  0  0  0  0  0  0  0  0  0  0  0
   37.1260   13.2650   61.6880 C   0  0  0  0  0  0  0  0  0  0  0  0
   38.1100   12.5860   61.3550 O   0  0  0  0  0  0  0  0  0  0  0  0
   36.6650   14.3640   60.8550 C   0  0  0  0  0  0  0  0  0  0  0  0
   35.2290   14.6580   61.0030 O   0  0  0  0  0  0  0  0  0  0  0  0
   33.9340   18.1310   70.2490 C   0  0  0  0  0  0  0  0  0  0  0  0
   34.6390   19.3070   69.8370 C   0  0  0  0  0  0  0  0  0  0  0  0
   34.5470   20.5610   70.6420 C   0  0  0  0  0  0  0  0  0  0  0  0
   34.2110   20.2320   71.9750 O   0  0  0  0  0  0  0  0  0  0  0  0
   37.2950   19.3840   68.3470 H   0  0  0  0  0  0  0  0  0  0  0  0
   36.2860   20.4920   68.6870 H   0  0  0  0  0  0  0  0  0  0  0  0
   37.5080   20.2620   69.5910 H   0  0  0  0  0  0  0  0  0  0  0  0
   36.8210   17.1450   69.5090 H   0  0  0  0  0  0  0  0  0  0  0  0
   36.2090   17.8060   68.2830 H   0  0  0  0  0  0  0  0  0  0  0  0
   34.8200   16.2300   70.1330 H   0  0  0  0  0  0  0  0  0  0  0  0
   33.0740   16.8590   68.4460 H   0  0  0  0  0  0  0  0  0  0  0  0
   32.4040   15.3360   66.5280 H   0  0  0  0  0  0  0  0  0  0  0  0
   32.9440   14.0130   66.7470 H   0  0  0  0  0  0  0  0  0  0  0  0
   32.4160   16.1370   64.1270 H   0  0  0  0  0  0  0  0  0  0  0  0
   33.2180   16.0610   61.9720 H   0  0  0  0  0  0  0  0  0  0  0  0
   35.2150   13.5050   65.2700 H   0  0  0  0  0  0  0  0  0  0  0  0
   36.7750   12.5090   63.4510 H   0  0  0  0  0  0  0  0  0  0  0  0
   36.9440   14.1220   59.9590 H   0  0  0  0  0  0  0  0  0  0  0  0
   37.2590   15.0990   61.0740 H   0  0  0  0  0  0  0  0  0  0  0  0
   33.9640   17.9970   71.2090 H   0  0  0  0  0  0  0  0  0  0  0  0
   32.9990   18.1480   69.9910 H   0  0  0  0  0  0  0  0  0  0  0  0
   34.4520   19.6020   68.9320 H   0  0  0  0  0  0  0  0  0  0  0  0
   33.8820   21.1020   70.1890 H   0  0  0  0  0  0  0  0  0  0  0  0
   35.4150   20.9840   70.5460 H   0  0  0  0  0  0  0  0  0  0  0  0
   34.3880   20.9060   72.4740 H   0  0  0  0  0  0  0  0  0  0  0  0
  1  2  1  0  0  0  0
  2  3  1  0  0  0  0
  3  4  1  0  0  0  0
  4  5  1  0  0  0  0
  5  6  1  0  0  0  0
  6  7  2  0  0  0  0
  6  8  1  0  0  0  0
  8  9  1  0  0  0  0
  9 10  2  0  0  0  0
 10 11  1  0  0  0  0
 11 12  2  0  0  0  0
 12 13  1  0  0  0  0
  9 14  1  0  0  0  0
 13 14  2  0  0  0  0
 13 15  1  0  0  0  0
 15 16  1  0  0  0  0
 16 17  2  0  0  0  0
 16 18  1  0  0  0  0
 12 19  1  0  0  0  0
 18 19  1  0  0  0  0
  4 20  1  0  0  0  0
  2 21  1  0  0  0  0
 20 21  1  0  0  0  0
 21 22  1  0  0  0  0
 22 23  1  0  0  0  0
  1 24  1  0  0  0  0
  1 25  1  0  0  0  0
  1 26  1  0  0  0  0
  3 27  1  0  0  0  0
  3 28  1  0  0  0  0
  4 29  1  0  0  0  0
  5 30  1  0  0  0  0
  8 31  1  0  0  0  0
  8 32  1  0  0  0  0
 10 33  1  0  0  0  0
 11 34  1  0  0  0  0
 14 35  1  0  0  0  0
 15 36  1  0  0  0  0
 18 37  1  0  0  0  0
 18 38  1  0  0  0  0
 20 39  1  0  0  0  0
 20 40  1  0  0  0  0
 21 41  1  0  0  0  0
 22 42  1  0  0  0  0
 22 43  1  0  0  0  0
 23 44  1  0  0  0  0
M  END
$$$$
