6PGR
  PyMOL3.1          3D                             0

 22 25  0  0  0  0  0  0  0  0999 V2000
  -43.6950   14.7970   38.5980 C   0  0  0  0  0  0  0  0  0  0  0  0
  -43.0140   15.1740   39.7720 C   0  0  0  0  0  0  0  0  0  0  0  0
  -43.7260   15.5330   40.9080 C   0  0  0  0  0  0  0  0  0  0  0  0
  -45.1640   15.5570   40.8640 C   0  0  0  0  0  0  0  0  0  0  0  0
  -46.1220   15.9280   41.8440 C   0  0  0  0  0  0  0  0  0  0  0  0
  -47.4000   15.8350   41.4310 C   0  0  0  0  0  0  0  0  0  0  0  0
  -47.5090   15.2620   39.7870 S   0  0  0  0  0  0  0  0  0  0  0  0
  -45.7840   15.1650   39.6710 C   0  0  0  0  0  0  0  0  0  0  0  0
  -45.0520   14.7700   38.5550 C   0  0  0  0  0  0  0  0  0  0  0  0
  -48.6110   16.2260   42.1270 C   0  0  0  0  0  0  0  0  0  0  0  0
  -49.6660   16.1390   41.5150 O   0  0  0  0  0  0  0  0  0  0  0  0
  -48.5160   16.8120   43.3530 N   0  0  0  0  0  0  0  0  0  0  0  0
  -49.6120   17.3300   44.0540 C   0  0  0  0  0  0  0  0  0  0  0  0
  -50.5310   18.1760   43.4200 C   0  0  0  0  0  0  0  0  0  0  0  0
  -51.6190   18.7340   44.1270 C   0  0  0  0  0  0  0  0  0  0  0  0
  -51.7560   18.4680   45.4790 C   0  0  0  0  0  0  0  0  0  0  0  0
  -50.8310   17.6390   46.1320 C   0  0  0  0  0  0  0  0  0  0  0  0
  -50.7100   17.1880   47.4280 N   0  0  0  0  0  0  0  0  0  0  0  0
  -49.6050   16.3840   47.5620 C   0  0  0  0  0  0  0  0  0  0  0  0
  -48.9610   16.2660   46.3740 C   0  0  0  0  0  0  0  0  0  0  0  0
  -49.7440   17.0730   45.4220 C   0  0  0  0  0  0  0  0  0  0  0  0
  -42.8640   14.2770   36.9440 Br  0  0  0  0  0  0  0  0  0  0  0  0
  1  2  1  0  0  0  0
  2  3  2  0  0  0  0
  3  4  1  0  0  0  0
  4  5  1  0  0  0  0
  5  6  2  0  0  0  0
  6  7  1  0  0  0  0
  4  8  2  0  0  0  0
  7  8  1  0  0  0  0
  1  9  2  0  0  0  0
  8  9  1  0  0  0  0
  6 10  1  0  0  0  0
 10 11  2  0  0  0  0
 10 12  1  0  0  0  0
 12 13  1  0  0  0  0
 13 14  2  0  0  0  0
 14 15  1  0  0  0  0
 15 16  2  0  0  0  0
 16 17  1  0  0  0  0
 17 18  1  0  0  0  0
 18 19  1  0  0  0  0
 19 20  2  0  0  0  0
 13 21  1  0  0  0  0
 17 21  2  0  0  0  0
 20 21  1  0  0  0  0
  1 22  1  0  0  0  0
M  END
$$$$
