6PGR
  PyMOL3.1          3D                             0

 22 25  0  0  0  0  0  0  0  0999 V2000
  -36.5880    3.0780   45.4480 C   0  0  0  0  0  0  0  0  0  0  0  0
  -37.2550    3.9000   46.3580 C   0  0  0  0  0  0  0  0  0  0  0  0
  -36.5550    4.7370   47.2170 C   0  0  0  0  0  0  0  0  0  0  0  0
  -35.1260    4.7080   47.2090 C   0  0  0  0  0  0  0  0  0  0  0  0
  -34.1620    5.3910   47.9940 C   0  0  0  0  0  0  0  0  0  0  0  0
  -32.8750    5.0900   47.6950 C   0  0  0  0  0  0  0  0  0  0  0  0
  -32.7820    3.9480   46.3960 S   0  0  0  0  0  0  0  0  0  0  0  0
  -34.5150    3.8630   46.2820 C   0  0  0  0  0  0  0  0  0  0  0  0
  -35.2330    3.0790   45.3960 C   0  0  0  0  0  0  0  0  0  0  0  0
  -31.6320    5.4840   48.3380 C   0  0  0  0  0  0  0  0  0  0  0  0
  -30.5780    4.9670   47.9550 O   0  0  0  0  0  0  0  0  0  0  0  0
  -31.6920    6.2760   49.4170 N   0  0  0  0  0  0  0  0  0  0  0  0
  -30.5990    6.6470   50.2320 C   0  0  0  0  0  0  0  0  0  0  0  0
  -29.6580    5.7120   50.6730 C   0  0  0  0  0  0  0  0  0  0  0  0
  -28.5910    6.0660   51.5280 C   0  0  0  0  0  0  0  0  0  0  0  0
  -28.4970    7.3730   51.9770 C   0  0  0  0  0  0  0  0  0  0  0  0
  -29.4650    8.3230   51.5700 C   0  0  0  0  0  0  0  0  0  0  0  0
  -29.6500    9.6620   51.8120 N   0  0  0  0  0  0  0  0  0  0  0  0
  -30.7600   10.1330   51.1550 C   0  0  0  0  0  0  0  0  0  0  0  0
  -31.3410    9.1440   50.4440 C   0  0  0  0  0  0  0  0  0  0  0  0
  -30.5230    7.9590   50.6900 C   0  0  0  0  0  0  0  0  0  0  0  0
  -37.3930    1.8740   44.1910 Br  0  0  0  0  0  0  0  0  0  0  0  0
  1  2  1  0  0  0  0
  2  3  2  0  0  0  0
  3  4  1  0  0  0  0
  4  5  1  0  0  0  0
  5  6  2  0  0  0  0
  6  7  1  0  0  0  0
  4  8  2  0  0  0  0
  7  8  1  0  0  0  0
  1  9  2  0  0  0  0
  8  9  1  0  0  0  0
  6 10  1  0  0  0  0
 10 11  2  0  0  0  0
 10 12  1  0  0  0  0
 12 13  1  0  0  0  0
 13 14  2  0  0  0  0
 14 15  1  0  0  0  0
 15 16  2  0  0  0  0
 16 17  1  0  0  0  0
 17 18  1  0  0  0  0
 18 19  1  0  0  0  0
 19 20  2  0  0  0  0
 13 21  1  0  0  0  0
 17 21  2  0  0  0  0
 20 21  1  0  0  0  0
  1 22  1  0  0  0  0
M  END
$$$$
