6UZ8
  PyMOL3.1          3D                             0

 27 31  0  0  0  0  0  0  0  0999 V2000
  188.4490  167.2100  131.5620 Cl  0  0  0  0  0  0  0  0  0  0  0  0
  188.1080  168.4590  130.4250 C   0  0  0  0  0  0  0  0  0  0  0  0
  189.0200  168.6700  129.4150 C   0  0  0  0  0  0  0  0  0  0  0  0
  188.7700  169.6720  128.4850 C   0  0  0  0  0  0  0  0  0  0  0  0
  187.6000  170.4200  128.6190 C   0  0  0  0  0  0  0  0  0  0  0  0
  187.1570  171.4480  127.8230 N   0  0  0  0  0  0  0  0  0  0  0  0
  185.9690  172.0880  128.4020 C   0  0  0  0  0  0  0  0  0  0  0  0
  185.4970  171.1470  129.5550 C   0  0  0  0  0  0  0  0  0  0  0  0
  185.2770  171.9410  130.8450 C   0  0  0  0  0  0  0  0  0  0  0  0
  183.9290  172.6920  130.9390 C   0  0  0  0  0  0  0  0  0  0  0  0
  182.7590  171.8150  130.6620 N   0  0  0  0  0  0  0  0  0  0  0  0
  181.6730  171.6470  131.5400 C   0  0  0  0  0  0  0  0  0  0  0  0
  181.5880  172.3870  132.8980 C   0  0  0  0  0  0  0  0  0  0  0  0
  180.1950  172.2190  133.5380 C   0  0  0  0  0  0  0  0  0  0  0  0
  180.1160  172.9990  134.7290 O   0  0  0  0  0  0  0  0  0  0  0  0
  181.2110  172.9350  135.5570 C   0  0  0  0  0  0  0  0  0  0  0  0
  181.0660  173.4720  136.8300 C   0  0  0  0  0  0  0  0  0  0  0  0
  182.1500  173.4320  137.6920 C   0  0  0  0  0  0  0  0  0  0  0  0
  183.3500  172.8580  137.2710 C   0  0  0  0  0  0  0  0  0  0  0  0
  183.4860  172.3210  135.9920 C   0  0  0  0  0  0  0  0  0  0  0  0
  182.4010  172.3570  135.1110 C   0  0  0  0  0  0  0  0  0  0  0  0
  182.5240  171.8290  133.8360 O   0  0  0  0  0  0  0  0  0  0  0  0
  180.7660  170.9010  131.2160 O   0  0  0  0  0  0  0  0  0  0  0  0
  182.8940  171.1390  129.3660 C   0  0  0  0  0  0  0  0  0  0  0  0
  184.2240  170.3780  129.2240 C   0  0  0  0  0  0  0  0  0  0  0  0
  186.6710  170.1930  129.6640 C   0  0  0  0  0  0  0  0  0  0  0  0
  186.9340  169.1960  130.5740 C   0  0  0  0  0  0  0  0  0  0  0  0
  1  2  1  0  0  0  0
  2  3  2  0  0  0  0
  3  4  1  0  0  0  0
  4  5  2  0  0  0  0
  5  6  1  0  0  0  0
  6  7  2  0  0  0  0
  7  8  1  0  0  0  0
  8  9  1  0  0  0  0
  9 10  1  0  0  0  0
 10 11  1  0  0  0  0
 11 12  1  0  0  0  0
 12 13  1  0  0  0  0
 13 14  1  0  0  0  0
 14 15  1  0  0  0  0
 15 16  1  0  0  0  0
 16 17  1  0  0  0  0
 17 18  2  0  0  0  0
 18 19  1  0  0  0  0
 19 20  2  0  0  0  0
 16 21  2  0  0  0  0
 20 21  1  0  0  0  0
 13 22  1  0  0  0  0
 21 22  1  0  0  0  0
 12 23  2  0  0  0  0
 11 24  1  0  0  0  0
  8 25  1  0  0  0  0
 24 25  1  0  0  0  0
  5 26  1  0  0  0  0
  8 26  1  0  0  0  0
  2 27  1  0  0  0  0
 26 27  2  0  0  0  0
M  END
$$$$
