6UZ8
  PyMOL3.1          3D                             0

 27 31  0  0  0  0  0  0  0  0999 V2000
  162.2600  188.4510  131.5610 Cl  0  0  0  0  0  0  0  0  0  0  0  0
  161.0110  188.1100  130.4240 C   0  0  0  0  0  0  0  0  0  0  0  0
  160.8000  189.0220  129.4140 C   0  0  0  0  0  0  0  0  0  0  0  0
  159.7980  188.7720  128.4840 C   0  0  0  0  0  0  0  0  0  0  0  0
  159.0500  187.6020  128.6180 C   0  0  0  0  0  0  0  0  0  0  0  0
  158.0220  187.1590  127.8220 N   0  0  0  0  0  0  0  0  0  0  0  0
  157.3820  185.9710  128.4010 C   0  0  0  0  0  0  0  0  0  0  0  0
  158.3230  185.4990  129.5540 C   0  0  0  0  0  0  0  0  0  0  0  0
  157.5290  185.2790  130.8440 C   0  0  0  0  0  0  0  0  0  0  0  0
  156.7780  183.9310  130.9380 C   0  0  0  0  0  0  0  0  0  0  0  0
  157.6550  182.7610  130.6610 N   0  0  0  0  0  0  0  0  0  0  0  0
  157.8230  181.6750  131.5390 C   0  0  0  0  0  0  0  0  0  0  0  0
  157.0840  181.5900  132.8970 C   0  0  0  0  0  0  0  0  0  0  0  0
  157.2520  180.1970  133.5370 C   0  0  0  0  0  0  0  0  0  0  0  0
  156.4720  180.1180  134.7280 O   0  0  0  0  0  0  0  0  0  0  0  0
  156.5360  181.2130  135.5560 C   0  0  0  0  0  0  0  0  0  0  0  0
  155.9990  181.0680  136.8290 C   0  0  0  0  0  0  0  0  0  0  0  0
  156.0390  182.1520  137.6910 C   0  0  0  0  0  0  0  0  0  0  0  0
  156.6130  183.3520  137.2700 C   0  0  0  0  0  0  0  0  0  0  0  0
  157.1500  183.4880  135.9910 C   0  0  0  0  0  0  0  0  0  0  0  0
  157.1140  182.4030  135.1100 C   0  0  0  0  0  0  0  0  0  0  0  0
  157.6420  182.5260  133.8350 O   0  0  0  0  0  0  0  0  0  0  0  0
  158.5690  180.7680  131.2150 O   0  0  0  0  0  0  0  0  0  0  0  0
  158.3310  182.8960  129.3650 C   0  0  0  0  0  0  0  0  0  0  0  0
  159.0920  184.2260  129.2230 C   0  0  0  0  0  0  0  0  0  0  0  0
  159.2770  186.6730  129.6630 C   0  0  0  0  0  0  0  0  0  0  0  0
  160.2740  186.9360  130.5730 C   0  0  0  0  0  0  0  0  0  0  0  0
  1  2  1  0  0  0  0
  2  3  4  0  0  0  0
  2 27  4  0  0  0  0
  3  4  4  0  0  0  0
  4  5  4  0  0  0  0
  5  6  1  0  0  0  0
  6  7  1  0  0  0  0
  7  8  1  0  0  0  0
  8  9  1  0  0  0  0
  8 25  1  0  0  0  0
  9 10  1  0  0  0  0
 10 11  1  0  0  0  0
 11 12  1  0  0  0  0
 12 23  2  0  0  0  0
 12 13  1  0  0  0  0
 13 14  1  0  0  0  0
 13 22  1  0  0  0  0
 14 15  1  0  0  0  0
 15 16  1  0  0  0  0
 16 17  4  0  0  0  0
 17 18  4  0  0  0  0
 18 19  4  0  0  0  0
 19 20  4  0  0  0  0
 20 21  4  0  0  0  0
 16 21  4  0  0  0  0
 21 22  1  0  0  0  0
 11 24  1  0  0  0  0
 24 25  1  0  0  0  0
  5 26  4  0  0  0  0
  8 26  1  0  0  0  0
 26 27  4  0  0  0  0
M  END
$$$$
