8BQ4
  PyMOL3.1          3D                             0

 68 72  0  0  0  0  0  0  0  0999 V2000
   -7.4560   20.7500   48.2650 C   0  0  0  0  0  0  0  0  0  0  0  0
   -9.9930   17.2670   44.6640 N   0  0  0  0  0  0  0  0  0  0  0  0
  -14.0310   13.1990   41.5830 O   0  0  0  0  0  0  0  0  0  0  0  0
  -12.7220   12.7270   41.9450 S   0  0  0  0  0  0  0  0  0  0  0  0
   -8.1830   20.5370   46.9690 C   0  0  0  0  0  0  0  0  0  0  0  0
  -10.5550   19.0750   43.2240 N   0  0  0  0  0  0  0  0  0  0  0  0
  -12.6080   11.5370   42.7370 O   0  0  0  0  0  0  0  0  0  0  0  0
   -8.5440   21.9060   45.9480 S   0  0  0  0  0  0  0  0  0  0  0  0
   -8.6490   19.3790   46.4470 C   0  0  0  0  0  0  0  0  0  0  0  0
   -9.9280   21.3200   43.6990 N   0  0  0  0  0  0  0  0  0  0  0  0
   -9.3330   19.5570   45.2000 C   0  0  0  0  0  0  0  0  0  0  0  0
   -9.9590   18.6150   44.3490 C   0  0  0  0  0  0  0  0  0  0  0  0
  -10.6380   16.1940   44.0190 C   0  0  0  0  0  0  0  0  0  0  0  0
  -10.2740   14.8730   44.3170 C   0  0  0  0  0  0  0  0  0  0  0  0
  -10.9150   13.8100   43.7050 C   0  0  0  0  0  0  0  0  0  0  0  0
  -11.8990   14.0590   42.7590 C   0  0  0  0  0  0  0  0  0  0  0  0
  -12.2860   15.3550   42.4590 C   0  0  0  0  0  0  0  0  0  0  0  0
  -11.6580   16.4140   43.0810 C   0  0  0  0  0  0  0  0  0  0  0  0
  -11.7880   12.4990   40.4760 C   0  0  0  0  0  0  0  0  0  0  0  0
  -10.5260   20.3920   42.9520 C   0  0  0  0  0  0  0  0  0  0  0  0
   -9.3490   20.8880   44.8250 C   0  0  0  0  0  0  0  0  0  0  0  0
   -6.8880   21.5280   48.1930 H   0  0  0  0  0  0  0  0  0  0  0  0
   -6.9170   19.9750   48.4650 H   0  0  0  0  0  0  0  0  0  0  0  0
   -8.0980   20.8860   48.9750 H   0  0  0  0  0  0  0  0  0  0  0  0
   -8.5310   18.5460   46.8750 H   0  0  0  0  0  0  0  0  0  0  0  0
   -9.5670   17.0520   45.3870 H   0  0  0  0  0  0  0  0  0  0  0  0
   -9.6020   14.7090   44.9530 H   0  0  0  0  0  0  0  0  0  0  0  0
  -10.6540   12.9280   43.9010 H   0  0  0  0  0  0  0  0  0  0  0  0
  -12.9470   15.5170   41.8130 H   0  0  0  0  0  0  0  0  0  0  0  0
  -11.9270   17.2880   42.8810 H   0  0  0  0  0  0  0  0  0  0  0  0
  -11.1830   11.7570   40.5940 H   0  0  0  0  0  0  0  0  0  0  0  0
  -11.2880   13.3010   40.2870 H   0  0  0  0  0  0  0  0  0  0  0  0
  -12.3870   12.3120   39.7420 H   0  0  0  0  0  0  0  0  0  0  0  0
  -10.9420   20.6750   42.1600 H   0  0  0  0  0  0  0  0  0  0  0  0
    9.6820   21.6810  -14.5890 C   0  0  0  0  0  0  0  0  0  0  0  0
   12.6840   18.5460  -11.0240 N   0  0  0  0  0  0  0  0  0  0  0  0
   17.1670   14.9870   -7.9210 O   0  0  0  0  0  0  0  0  0  0  0  0
   15.9200   14.3750   -8.2710 S   0  0  0  0  0  0  0  0  0  0  0  0
   10.4410   21.5570  -13.3010 C   0  0  0  0  0  0  0  0  0  0  0  0
   13.0300   20.4150   -9.5910 N   0  0  0  0  0  0  0  0  0  0  0  0
   15.9490   13.1710   -9.0520 O   0  0  0  0  0  0  0  0  0  0  0  0
   10.6060   22.9580  -12.2750 S   0  0  0  0  0  0  0  0  0  0  0  0
   11.0540   20.4650  -12.7820 C   0  0  0  0  0  0  0  0  0  0  0  0
   12.1160   22.5620  -10.0580 N   0  0  0  0  0  0  0  0  0  0  0  0
   11.7270   20.7320  -11.5480 C   0  0  0  0  0  0  0  0  0  0  0  0
   12.4920   19.8840  -10.7160 C   0  0  0  0  0  0  0  0  0  0  0  0
   13.4320   17.5480  -10.3700 C   0  0  0  0  0  0  0  0  0  0  0  0
   13.2330   16.1920  -10.6680 C   0  0  0  0  0  0  0  0  0  0  0  0
   13.9920   15.2130  -10.0450 C   0  0  0  0  0  0  0  0  0  0  0  0
   14.9400   15.5850   -9.1040 C   0  0  0  0  0  0  0  0  0  0  0  0
   15.1640   16.9180   -8.8150 C   0  0  0  0  0  0  0  0  0  0  0  0
   14.4080   17.8930   -9.4310 C   0  0  0  0  0  0  0  0  0  0  0  0
   15.0270   14.0570   -6.8010 C   0  0  0  0  0  0  0  0  0  0  0  0
   12.8280   21.7170   -9.3150 C   0  0  0  0  0  0  0  0  0  0  0  0
   11.5690   22.0540  -11.1680 C   0  0  0  0  0  0  0  0  0  0  0  0
    9.0290   22.3890  -14.5110 H   0  0  0  0  0  0  0  0  0  0  0  0
    9.2320   20.8470  -14.7790 H   0  0  0  0  0  0  0  0  0  0  0  0
   10.2960   21.8870  -15.3060 H   0  0  0  0  0  0  0  0  0  0  0  0
   11.0290   19.6200  -13.2050 H   0  0  0  0  0  0  0  0  0  0  0  0
   12.2650   18.2740  -11.7340 H   0  0  0  0  0  0  0  0  0  0  0  0
   12.5710   15.9460  -11.2860 H   0  0  0  0  0  0  0  0  0  0  0  0
   13.8270   14.3040  -10.2250 H   0  0  0  0  0  0  0  0  0  0  0  0
   15.8080   17.1630   -8.1790 H   0  0  0  0  0  0  0  0  0  0  0  0
   14.5860   18.7920   -9.2500 H   0  0  0  0  0  0  0  0  0  0  0  0
   14.5070   13.2510   -6.9100 H   0  0  0  0  0  0  0  0  0  0  0  0
   14.4350   14.7980   -6.6180 H   0  0  0  0  0  0  0  0  0  0  0  0
   15.6450   13.9500   -6.0680 H   0  0  0  0  0  0  0  0  0  0  0  0
   13.2090   22.0520   -8.5270 H   0  0  0  0  0  0  0  0  0  0  0  0
  3  4  2  0  0  0  0
  1  5  1  0  0  0  0
  4  7  2  0  0  0  0
  5  8  1  0  0  0  0
  5  9  2  0  0  0  0
  9 11  1  0  0  0  0
  2 12  1  0  0  0  0
  6 12  1  0  0  0  0
 11 12  2  0  0  0  0
  2 13  1  0  0  0  0
 13 14  1  0  0  0  0
 14 15  2  0  0  0  0
  4 16  1  0  0  0  0
 15 16  1  0  0  0  0
 16 17  2  0  0  0  0
 13 18  2  0  0  0  0
 17 18  1  0  0  0  0
  4 19  1  0  0  0  0
  6 20  2  0  0  0  0
 10 20  1  0  0  0  0
  8 21  1  0  0  0  0
 10 21  2  0  0  0  0
 11 21  1  0  0  0  0
  1 22  1  0  0  0  0
  1 23  1  0  0  0  0
  1 24  1  0  0  0  0
  9 25  1  0  0  0  0
  2 26  1  0  0  0  0
 14 27  1  0  0  0  0
 15 28  1  0  0  0  0
 17 29  1  0  0  0  0
 18 30  1  0  0  0  0
 19 31  1  0  0  0  0
 19 32  1  0  0  0  0
 19 33  1  0  0  0  0
 20 34  1  0  0  0  0
 37 38  2  0  0  0  0
 35 39  1  0  0  0  0
 38 41  2  0  0  0  0
 39 42  1  0  0  0  0
 39 43  2  0  0  0  0
 43 45  1  0  0  0  0
 36 46  1  0  0  0  0
 40 46  1  0  0  0  0
 45 46  2  0  0  0  0
 36 47  1  0  0  0  0
 47 48  1  0  0  0  0
 48 49  2  0  0  0  0
 38 50  1  0  0  0  0
 49 50  1  0  0  0  0
 50 51  2  0  0  0  0
 47 52  2  0  0  0  0
 51 52  1  0  0  0  0
 38 53  1  0  0  0  0
 40 54  2  0  0  0  0
 44 54  1  0  0  0  0
 42 55  1  0  0  0  0
 44 55  2  0  0  0  0
 45 55  1  0  0  0  0
 35 56  1  0  0  0  0
 35 57  1  0  0  0  0
 35 58  1  0  0  0  0
 43 59  1  0  0  0  0
 36 60  1  0  0  0  0
 48 61  1  0  0  0  0
 49 62  1  0  0  0  0
 51 63  1  0  0  0  0
 52 64  1  0  0  0  0
 53 65  1  0  0  0  0
 53 66  1  0  0  0  0
 53 67  1  0  0  0  0
 54 68  1  0  0  0  0
M  END
$$$$
