8SIA
  PyMOL3.1          3D                             0

 37 40  0  0  0  0  0  0  0  0999 V2000
   93.2710  123.3220  142.9310 C   0  0  0  0  0  0  0  0  0  0  0  0
   92.7510  124.7440  142.9700 C   0  0  0  0  0  0  0  0  0  0  0  0
   93.9030  125.7180  143.1790 C   0  0  0  0  0  0  0  0  0  0  0  0
   94.7610  125.3250  144.3670 C   0  0  0  0  0  0  0  0  0  0  0  0
   95.5330  126.2870  145.0100 C   0  0  0  0  0  0  0  0  0  0  0  0
   96.2760  125.9650  146.1290 C   0  0  0  0  0  0  0  0  0  0  0  0
   96.2560  124.6870  146.6220 C   0  0  0  0  0  0  0  0  0  0  0  0
   95.4960  123.7190  145.9960 C   0  0  0  0  0  0  0  0  0  0  0  0
   94.7430  124.0210  144.8660 C   0  0  0  0  0  0  0  0  0  0  0  0
   93.8590  122.9610  144.2610 C   0  0  0  0  0  0  0  0  0  0  0  0
   93.3950  127.0770  143.3320 N   0  0  0  0  0  0  0  0  0  0  0  0
   93.5670  128.0440  142.4240 C   0  0  0  0  0  0  0  0  0  0  0  0
   93.2560  129.2980  142.6760 N   0  0  0  0  0  0  0  0  0  0  0  0
   93.5630  129.9700  141.4980 C   0  0  0  0  0  0  0  0  0  0  0  0
   93.4410  131.3120  141.1640 C   0  0  0  0  0  0  0  0  0  0  0  0
   93.8190  131.7220  139.8950 C   0  0  0  0  0  0  0  0  0  0  0  0
   94.3100  130.8170  138.9720 C   0  0  0  0  0  0  0  0  0  0  0  0
   94.4380  129.4770  139.2910 C   0  0  0  0  0  0  0  0  0  0  0  0
   94.0590  129.0720  140.5590 C   0  0  0  0  0  0  0  0  0  0  0  0
   94.0530  127.8430  141.1770 N   0  0  0  0  0  0  0  0  0  0  0  0
   94.5090  125.6490  142.4200 H   0  0  0  0  0  0  0  0  0  0  0  0
   92.5330  122.7150  142.7250 H   0  0  0  0  0  0  0  0  0  0  0  0
   93.9480  123.2430  142.2330 H   0  0  0  0  0  0  0  0  0  0  0  0
   92.1100  124.8270  143.7040 H   0  0  0  0  0  0  0  0  0  0  0  0
   92.2940  124.9440  142.1310 H   0  0  0  0  0  0  0  0  0  0  0  0
   95.5530  127.2070  144.6850 H   0  0  0  0  0  0  0  0  0  0  0  0
   96.8350  126.6450  146.5430 H   0  0  0  0  0  0  0  0  0  0  0  0
   96.7580  124.4610  147.4280 H   0  0  0  0  0  0  0  0  0  0  0  0
   95.4800  122.8200  146.3740 H   0  0  0  0  0  0  0  0  0  0  0  0
   94.3190  122.1020  144.1860 H   0  0  0  0  0  0  0  0  0  0  0  0
   93.1270  122.8850  144.8960 H   0  0  0  0  0  0  0  0  0  0  0  0
   92.9320  127.2800  144.0490 H   0  0  0  0  0  0  0  0  0  0  0  0
   93.1010  131.9480  141.8220 H   0  0  0  0  0  0  0  0  0  0  0  0
   93.7420  132.6580  139.6400 H   0  0  0  0  0  0  0  0  0  0  0  0
   94.5510  131.1280  138.0800 H   0  0  0  0  0  0  0  0  0  0  0  0
   94.7960  128.8390  138.6450 H   0  0  0  0  0  0  0  0  0  0  0  0
   94.3210  127.0870  140.8200 H   0  0  0  0  0  0  0  0  0  0  0  0
  1  2  1  0  0  0  0
  2  3  1  0  0  0  0
  3  4  1  0  0  0  0
  4  5  1  0  0  0  0
  5  6  2  0  0  0  0
  6  7  1  0  0  0  0
  7  8  2  0  0  0  0
  4  9  2  0  0  0  0
  8  9  1  0  0  0  0
  1 10  1  0  0  0  0
  9 10  1  0  0  0  0
  3 11  1  0  0  0  0
 11 12  1  0  0  0  0
 12 13  2  0  0  0  0
 13 14  1  0  0  0  0
 14 15  1  0  0  0  0
 15 16  2  0  0  0  0
 16 17  1  0  0  0  0
 17 18  2  0  0  0  0
 14 19  2  0  0  0  0
 18 19  1  0  0  0  0
 12 20  1  0  0  0  0
 19 20  1  0  0  0  0
  3 21  1  0  0  0  0
  1 22  1  0  0  0  0
  1 23  1  0  0  0  0
  2 24  1  0  0  0  0
  2 25  1  0  0  0  0
  5 26  1  0  0  0  0
  6 27  1  0  0  0  0
  7 28  1  0  0  0  0
  8 29  1  0  0  0  0
 10 30  1  0  0  0  0
 10 31  1  0  0  0  0
 11 32  1  0  0  0  0
 15 33  1  0  0  0  0
 16 34  1  0  0  0  0
 17 35  1  0  0  0  0
 18 36  1  0  0  0  0
 20 37  1  0  0  0  0
M  END
$$$$
