7YS6
  PyMOL3.1          3D                             0

 13 14  0  0  0  0  0  0  0  0999 V2000
  116.7360  176.1030  140.3410 C   0  0  0  0  0  0  0  0  0  0  0  0
  115.6260  175.3010  139.6820 C   0  0  0  0  0  0  0  0  0  0  0  0
  115.6340  175.4000  138.1880 C   0  0  0  0  0  0  0  0  0  0  0  0
  116.0430  174.4570  137.2900 C   0  0  0  0  0  0  0  0  0  0  0  0
  115.2130  176.5350  137.4120 C   0  0  0  0  0  0  0  0  0  0  0  0
  115.3920  176.1980  136.0600 C   0  0  0  0  0  0  0  0  0  0  0  0
  114.7030  177.8000  137.7410 C   0  0  0  0  0  0  0  0  0  0  0  0
  115.8960  174.9260  136.0120 N   0  0  0  0  0  0  0  0  0  0  0  0
  115.0770  177.0820  135.0340 C   0  0  0  0  0  0  0  0  0  0  0  0
  114.3960  178.6670  136.7300 C   0  0  0  0  0  0  0  0  0  0  0  0
  116.6430  176.0050  141.7970 N   0  0  0  0  0  0  0  0  0  0  0  0
  114.5800  178.3130  135.3820 C   0  0  0  0  0  0  0  0  0  0  0  0
  113.8970  179.9060  137.0000 O   0  0  0  0  0  0  0  0  0  0  0  0
  1  2  1  0  0  0  0
  2  3  1  0  0  0  0
  3  4  2  0  0  0  0
  3  5  1  0  0  0  0
  5  6  2  0  0  0  0
  5  7  1  0  0  0  0
  4  8  1  0  0  0  0
  6  8  1  0  0  0  0
  6  9  1  0  0  0  0
  7 10  2  0  0  0  0
  1 11  1  0  0  0  0
  9 12  2  0  0  0  0
 10 12  1  0  0  0  0
 10 13  1  0  0  0  0
M  END
$$$$
