8E9X
  PyMOL3.1          3D                             0

 22 25  0  0  0  0  0  0  0  0999 V2000
  128.5730  130.6700  154.0980 C   0  0  0  0  0  0  0  0  0  0  0  0
  128.2020  131.8610  153.7860 N   0  0  0  0  0  0  0  0  0  0  0  0
  127.7460  132.5050  154.9070 C   0  0  0  0  0  0  0  0  0  0  0  0
  127.1530  133.8870  154.6100 C   0  0  0  0  0  0  0  0  0  0  0  0
  126.1300  133.8120  153.5880 N   0  0  0  0  0  0  0  0  0  0  0  0
  124.7500  134.3580  153.7920 C   0  0  0  0  0  0  0  0  0  0  0  0
  124.5180  134.9640  155.0910 N   0  0  0  0  0  0  0  0  0  0  0  0
  123.3440  135.5940  155.7130 C   0  0  0  0  0  0  0  0  0  0  0  0
  122.0930  135.1200  155.4540 C   0  0  0  0  0  0  0  0  0  0  0  0
  120.9400  135.7100  156.0450 C   0  0  0  0  0  0  0  0  0  0  0  0
  121.1020  136.7710  156.9240 C   0  0  0  0  0  0  0  0  0  0  0  0
  122.3860  137.2540  157.2130 C   0  0  0  0  0  0  0  0  0  0  0  0
  123.5060  136.6770  156.6230 C   0  0  0  0  0  0  0  0  0  0  0  0
  121.9080  134.0050  154.5110 N   0  0  0  0  0  0  0  0  0  0  0  0
  122.2800  134.1080  153.0830 C   0  0  0  0  0  0  0  0  0  0  0  0
  121.2520  134.0550  152.1070 C   0  0  0  0  0  0  0  0  0  0  0  0
  121.5860  134.1670  150.7580 C   0  0  0  0  0  0  0  0  0  0  0  0
  122.9300  134.3420  150.3740 C   0  0  0  0  0  0  0  0  0  0  0  0
  123.9380  134.4080  151.3460 C   0  0  0  0  0  0  0  0  0  0  0  0
  123.6070  134.2880  152.7170 C   0  0  0  0  0  0  0  0  0  0  0  0
  126.6790  133.1480  152.4200 C   0  0  0  0  0  0  0  0  0  0  0  0
  127.2780  131.7870  152.7740 C   0  0  0  0  0  0  0  0  0  0  0  0
  1  2  1  0  0  0  0
  2  3  1  0  0  0  0
  3  4  1  0  0  0  0
  4  5  1  0  0  0  0
  5  6  1  0  0  0  0
  6  7  1  0  0  0  0
  6 20  1  0  0  0  0
  7  8  1  0  0  0  0
  8  9  4  0  0  0  0
  8 13  4  0  0  0  0
  9 10  4  0  0  0  0
  9 14  1  0  0  0  0
 10 11  4  0  0  0  0
 11 12  4  0  0  0  0
 12 13  4  0  0  0  0
 14 15  1  0  0  0  0
 15 16  4  0  0  0  0
 15 20  4  0  0  0  0
 16 17  4  0  0  0  0
 17 18  4  0  0  0  0
 18 19  4  0  0  0  0
 19 20  4  0  0  0  0
  5 21  1  0  0  0  0
 21 22  1  0  0  0  0
  2 22  1  0  0  0  0
M  END
$$$$
