8V80
  PyMOL3.1          3D                             0

235255  0  0  0  0  0  0  0  0999 V2000
  118.6010  136.4910  130.4050 C   0  0  0  0  0  0  0  0  0  0  0  0
  117.8720  136.5940  131.6610 C   0  0  0  0  0  0  0  0  0  0  0  0
  118.6540  136.6240  132.7120 C   0  0  0  0  0  0  0  0  0  0  0  0
  120.1220  136.6180  132.3470 C   0  0  0  0  0  0  0  0  0  0  0  0
  120.0840  136.3930  130.8100 C   0  0  0  0  0  0  0  0  0  0  0  0
  121.2360  137.1750  130.1740 C   0  0  0  0  0  0  0  0  0  0  0  0
  121.0350  138.5780  130.4810 N   0  0  0  0  0  0  0  0  0  0  0  0
  121.1050  138.8930  131.8150 C   0  0  0  0  0  0  0  0  0  0  0  0
  120.6910  137.9580  132.7720 C   0  0  0  0  0  0  0  0  0  0  0  0
  120.7450  138.3170  134.1150 C   0  0  0  0  0  0  0  0  0  0  0  0
  121.1880  139.5750  134.4950 C   0  0  0  0  0  0  0  0  0  0  0  0
  121.5880  140.4970  133.5460 C   0  0  0  0  0  0  0  0  0  0  0  0
  121.5420  140.1530  132.2100 C   0  0  0  0  0  0  0  0  0  0  0  0
  121.2940  140.0010  136.2020 S   0  0  0  0  0  0  0  0  0  0  0  0
  122.5310  139.4950  136.6940 O   0  0  0  0  0  0  0  0  0  0  0  0
  121.0530  141.4030  136.3030 O   0  0  0  0  0  0  0  0  0  0  0  0
  120.1260  139.2550  136.9890 N   0  0  0  0  0  0  0  0  0  0  0  0
  121.3780  136.9540  128.6730 C   0  0  0  0  0  0  0  0  0  0  0  0
  120.5000  137.5570  127.8100 C   0  0  0  0  0  0  0  0  0  0  0  0
  120.5880  137.3890  126.4390 C   0  0  0  0  0  0  0  0  0  0  0  0
  121.5610  136.6090  125.8980 C   0  0  0  0  0  0  0  0  0  0  0  0
  122.4970  135.9520  126.7260 C   0  0  0  0  0  0  0  0  0  0  0  0
  123.4850  135.0910  126.1960 C   0  0  0  0  0  0  0  0  0  0  0  0
  124.3520  134.4320  127.0170 C   0  0  0  0  0  0  0  0  0  0  0  0
  124.2790  134.5910  128.3870 C   0  0  0  0  0  0  0  0  0  0  0  0
  123.3400  135.4120  128.9430 C   0  0  0  0  0  0  0  0  0  0  0  0
  122.4140  136.1230  128.1380 C   0  0  0  0  0  0  0  0  0  0  0  0
  120.5850  135.9190  132.8510 H   0  0  0  0  0  0  0  0  0  0  0  0
  116.8950  136.6350  131.7040 H   0  0  0  0  0  0  0  0  0  0  0  0
  118.3150  136.6540  133.6300 H   0  0  0  0  0  0  0  0  0  0  0  0
  120.3220  135.4560  130.6560 H   0  0  0  0  0  0  0  0  0  0  0  0
  122.0400  136.8630  130.6320 H   0  0  0  0  0  0  0  0  0  0  0  0
  120.8660  139.1770  129.8640 H   0  0  0  0  0  0  0  0  0  0  0  0
  120.4760  137.6750  134.8030 H   0  0  0  0  0  0  0  0  0  0  0  0
  121.9090  141.3850  133.8030 H   0  0  0  0  0  0  0  0  0  0  0  0
  121.7720  140.8350  131.5510 H   0  0  0  0  0  0  0  0  0  0  0  0
  123.3450  135.4780  129.9190 H   0  0  0  0  0  0  0  0  0  0  0  0
  119.3780  139.1950  136.5220 H   0  0  0  0  0  0  0  0  0  0  0  0
  119.9980  139.6650  137.7600 H   0  0  0  0  0  0  0  0  0  0  0  0
  119.7750  138.1320  128.1290 H   0  0  0  0  0  0  0  0  0  0  0  0
  119.9390  137.8310  125.8560 H   0  0  0  0  0  0  0  0  0  0  0  0
  121.6010  136.5110  124.9250 H   0  0  0  0  0  0  0  0  0  0  0  0
  123.5590  134.9560  125.2300 H   0  0  0  0  0  0  0  0  0  0  0  0
  125.0300  133.8440  126.6310 H   0  0  0  0  0  0  0  0  0  0  0  0
  118.3980  137.2680  129.8460 H   0  0  0  0  0  0  0  0  0  0  0  0
  118.3300  135.6860  129.9180 H   0  0  0  0  0  0  0  0  0  0  0  0
  124.9020  134.1080  128.9670 H   0  0  0  0  0  0  0  0  0  0  0  0
  133.6250  119.0520  130.4080 C   0  0  0  0  0  0  0  0  0  0  0  0
  133.3010  118.3910  131.6640 C   0  0  0  0  0  0  0  0  0  0  0  0
  133.5140  119.1440  132.7150 C   0  0  0  0  0  0  0  0  0  0  0  0
  133.9730  120.5380  132.3500 C   0  0  0  0  0  0  0  0  0  0  0  0
  134.1750  120.4320  130.8130 C   0  0  0  0  0  0  0  0  0  0  0  0
  133.7870  121.7690  130.1760 C   0  0  0  0  0  0  0  0  0  0  0  0
  132.3900  122.0120  130.4830 N   0  0  0  0  0  0  0  0  0  0  0  0
  132.1120  122.1750  131.8170 C   0  0  0  0  0  0  0  0  0  0  0  0
  132.8730  121.4930  132.7740 C   0  0  0  0  0  0  0  0  0  0  0  0
  132.5490  121.6560  134.1170 C   0  0  0  0  0  0  0  0  0  0  0  0
  131.4890  122.4650  134.4970 C   0  0  0  0  0  0  0  0  0  0  0  0
  130.7350  123.1300  133.5480 C   0  0  0  0  0  0  0  0  0  0  0  0
  131.0490  122.9800  132.2120 C   0  0  0  0  0  0  0  0  0  0  0  0
  131.1160  122.6970  136.2040 S   0  0  0  0  0  0  0  0  0  0  0  0
  131.9790  123.7180  136.6960 O   0  0  0  0  0  0  0  0  0  0  0  0
  129.7080  122.9010  136.3050 O   0  0  0  0  0  0  0  0  0  0  0  0
  131.4650  121.3560  136.9910 N   0  0  0  0  0  0  0  0  0  0  0  0
  134.0410  121.8360  128.6750 C   0  0  0  0  0  0  0  0  0  0  0  0
  133.1960  121.1860  127.8120 C   0  0  0  0  0  0  0  0  0  0  0  0
  133.3840  121.2180  126.4410 C   0  0  0  0  0  0  0  0  0  0  0  0
  134.4260  121.9030  125.9000 C   0  0  0  0  0  0  0  0  0  0  0  0
  135.3400  122.5910  126.7280 C   0  0  0  0  0  0  0  0  0  0  0  0
  136.4630  123.2650  126.1980 C   0  0  0  0  0  0  0  0  0  0  0  0
  137.3580  123.8860  127.0190 C   0  0  0  0  0  0  0  0  0  0  0  0
  137.1840  123.8660  128.3890 C   0  0  0  0  0  0  0  0  0  0  0  0
  136.1130  123.2270  128.9450 C   0  0  0  0  0  0  0  0  0  0  0  0
  135.1510  122.5650  128.1400 C   0  0  0  0  0  0  0  0  0  0  0  0
  134.7810  120.7640  132.8540 H   0  0  0  0  0  0  0  0  0  0  0  0
  132.9610  117.4740  131.7080 H   0  0  0  0  0  0  0  0  0  0  0  0
  133.3800  118.8310  133.6330 H   0  0  0  0  0  0  0  0  0  0  0  0
  135.1400  120.3690  130.6590 H   0  0  0  0  0  0  0  0  0  0  0  0
  134.3320  122.4380  130.6340 H   0  0  0  0  0  0  0  0  0  0  0  0
  131.7680  122.0350  129.8660 H   0  0  0  0  0  0  0  0  0  0  0  0
  133.0770  121.2020  134.8050 H   0  0  0  0  0  0  0  0  0  0  0  0
  129.9890  123.7090  133.8050 H   0  0  0  0  0  0  0  0  0  0  0  0
  130.4700  123.4080  131.5530 H   0  0  0  0  0  0  0  0  0  0  0  0
  136.0520  123.2520  129.9210 H   0  0  0  0  0  0  0  0  0  0  0  0
  131.2920  120.6270  136.5240 H   0  0  0  0  0  0  0  0  0  0  0  0
  131.0360  121.3620  137.7620 H   0  0  0  0  0  0  0  0  0  0  0  0
  132.4260  120.6740  128.1310 H   0  0  0  0  0  0  0  0  0  0  0  0
  132.7630  120.7370  125.8580 H   0  0  0  0  0  0  0  0  0  0  0  0
  134.5320  121.9100  124.9270 H   0  0  0  0  0  0  0  0  0  0  0  0
  136.6150  123.2930  125.2320 H   0  0  0  0  0  0  0  0  0  0  0  0
  138.1260  124.3500  126.6330 H   0  0  0  0  0  0  0  0  0  0  0  0
  132.8230  119.0980  129.8490 H   0  0  0  0  0  0  0  0  0  0  0  0
  134.3070  118.5450  129.9210 H   0  0  0  0  0  0  0  0  0  0  0  0
  137.8350  124.3110  128.9690 H   0  0  0  0  0  0  0  0  0  0  0  0
  154.8490  127.9520  130.4050 C   0  0  0  0  0  0  0  0  0  0  0  0
  155.3780  127.4400  131.6600 C   0  0  0  0  0  0  0  0  0  0  0  0
  154.7280  127.8750  132.7120 C   0  0  0  0  0  0  0  0  0  0  0  0
  153.5440  128.7430  132.3470 C   0  0  0  0  0  0  0  0  0  0  0  0
  153.7080  128.9020  130.8100 C   0  0  0  0  0  0  0  0  0  0  0  0
  152.3160  128.9470  130.1740 C   0  0  0  0  0  0  0  0  0  0  0  0
  151.6530  127.6930  130.4810 N   0  0  0  0  0  0  0  0  0  0  0  0
  151.4120  127.4790  131.8150 C   0  0  0  0  0  0  0  0  0  0  0  0
  152.2960  127.9920  132.7720 C   0  0  0  0  0  0  0  0  0  0  0  0
  152.0420  127.7340  134.1150 C   0  0  0  0  0  0  0  0  0  0  0  0
  150.9440  126.9760  134.4950 C   0  0  0  0  0  0  0  0  0  0  0  0
  150.0780  126.4650  133.5460 C   0  0  0  0  0  0  0  0  0  0  0  0
  150.3180  126.7170  132.2100 C   0  0  0  0  0  0  0  0  0  0  0  0
  150.6080  126.6940  136.2020 S   0  0  0  0  0  0  0  0  0  0  0  0
  149.9040  127.8300  136.6940 O   0  0  0  0  0  0  0  0  0  0  0  0
  149.9790  125.4180  136.3030 O   0  0  0  0  0  0  0  0  0  0  0  0
  151.9910  126.6110  136.9890 N   0  0  0  0  0  0  0  0  0  0  0  0
  152.3310  129.2090  128.6730 C   0  0  0  0  0  0  0  0  0  0  0  0
  152.6870  128.2040  127.8100 C   0  0  0  0  0  0  0  0  0  0  0  0
  152.7140  128.3930  126.4390 C   0  0  0  0  0  0  0  0  0  0  0  0
  152.3850  129.5960  125.8980 C   0  0  0  0  0  0  0  0  0  0  0  0
  152.0140  130.6770  126.7260 C   0  0  0  0  0  0  0  0  0  0  0  0
  151.7210  131.9550  126.1960 C   0  0  0  0  0  0  0  0  0  0  0  0
  151.4070  132.9970  127.0170 C   0  0  0  0  0  0  0  0  0  0  0  0
  151.3720  132.8260  128.3870 C   0  0  0  0  0  0  0  0  0  0  0  0
  151.6490  131.6090  128.9430 C   0  0  0  0  0  0  0  0  0  0  0  0
  151.9810  130.4900  128.1380 C   0  0  0  0  0  0  0  0  0  0  0  0
  153.5800  129.5800  132.8510 H   0  0  0  0  0  0  0  0  0  0  0  0
  156.1450  126.8320  131.7040 H   0  0  0  0  0  0  0  0  0  0  0  0
  154.9850  127.6510  133.6290 H   0  0  0  0  0  0  0  0  0  0  0  0
  154.0660  129.8000  130.6560 H   0  0  0  0  0  0  0  0  0  0  0  0
  151.8490  129.6720  130.6320 H   0  0  0  0  0  0  0  0  0  0  0  0
  151.4380  127.1090  129.8640 H   0  0  0  0  0  0  0  0  0  0  0  0
  152.6370  128.0950  134.8030 H   0  0  0  0  0  0  0  0  0  0  0  0
  149.2960  125.9350  133.8030 H   0  0  0  0  0  0  0  0  0  0  0  0
  149.7310  126.3000  131.5510 H   0  0  0  0  0  0  0  0  0  0  0  0
  151.6070  131.5590  129.9190 H   0  0  0  0  0  0  0  0  0  0  0  0
  152.6320  126.2200  136.5220 H   0  0  0  0  0  0  0  0  0  0  0  0
  151.8540  126.2040  137.7600 H   0  0  0  0  0  0  0  0  0  0  0  0
  152.9360  127.3140  128.1290 H   0  0  0  0  0  0  0  0  0  0  0  0
  152.9790  127.6530  125.8560 H   0  0  0  0  0  0  0  0  0  0  0  0
  152.4110  129.6990  124.9250 H   0  0  0  0  0  0  0  0  0  0  0  0
  151.7400  132.1080  125.2300 H   0  0  0  0  0  0  0  0  0  0  0  0
  151.2030  133.8720  126.6310 H   0  0  0  0  0  0  0  0  0  0  0  0
  154.5570  127.2030  129.8460 H   0  0  0  0  0  0  0  0  0  0  0  0
  155.5420  128.4440  129.9170 H   0  0  0  0  0  0  0  0  0  0  0  0
  151.1510  133.5830  128.9670 H   0  0  0  0  0  0  0  0  0  0  0  0
  130.5380  156.1650  130.4050 C   0  0  0  0  0  0  0  0  0  0  0  0
  130.4110  156.8900  131.6610 C   0  0  0  0  0  0  0  0  0  0  0  0
  130.6810  156.1560  132.7120 C   0  0  0  0  0  0  0  0  0  0  0  0
  131.1290  154.7580  132.3470 C   0  0  0  0  0  0  0  0  0  0  0  0
  130.9030  154.7250  130.8100 C   0  0  0  0  0  0  0  0  0  0  0  0
  132.0030  153.8710  130.1740 C   0  0  0  0  0  0  0  0  0  0  0  0
  133.2760  154.4960  130.4810 N   0  0  0  0  0  0  0  0  0  0  0  0
  133.5970  154.5270  131.8150 C   0  0  0  0  0  0  0  0  0  0  0  0
  132.5800  154.6320  132.7720 C   0  0  0  0  0  0  0  0  0  0  0  0
  132.9380  154.6910  134.1150 C   0  0  0  0  0  0  0  0  0  0  0  0
  134.2710  154.6590  134.4950 C   0  0  0  0  0  0  0  0  0  0  0  0
  135.2720  154.5640  133.5460 C   0  0  0  0  0  0  0  0  0  0  0  0
  134.9300  154.5010  132.2100 C   0  0  0  0  0  0  0  0  0  0  0  0
  134.7090  154.6900  136.2020 S   0  0  0  0  0  0  0  0  0  0  0  0
  134.6110  153.3570  136.6940 O   0  0  0  0  0  0  0  0  0  0  0  0
  135.9680  155.3520  136.3030 O   0  0  0  0  0  0  0  0  0  0  0  0
  133.6390  155.5700  136.9890 N   0  0  0  0  0  0  0  0  0  0  0  0
  131.8370  153.6680  128.6730 C   0  0  0  0  0  0  0  0  0  0  0  0
  132.1390  154.6900  127.8100 C   0  0  0  0  0  0  0  0  0  0  0  0
  132.0060  154.5540  126.4390 C   0  0  0  0  0  0  0  0  0  0  0  0
  131.5650  153.3870  125.8980 C   0  0  0  0  0  0  0  0  0  0  0  0
  131.2300  152.2940  126.7260 C   0  0  0  0  0  0  0  0  0  0  0  0
  130.7170  151.0880  126.1960 C   0  0  0  0  0  0  0  0  0  0  0  0
  130.3580  150.0600  127.0170 C   0  0  0  0  0  0  0  0  0  0  0  0
  130.4870  150.1780  128.3870 C   0  0  0  0  0  0  0  0  0  0  0  0
  130.9780  151.3250  128.9430 C   0  0  0  0  0  0  0  0  0  0  0  0
  131.3670  152.4260  128.1380 C   0  0  0  0  0  0  0  0  0  0  0  0
  130.6080  154.1010  132.8510 H   0  0  0  0  0  0  0  0  0  0  0  0
  130.1470  157.8320  131.7050 H   0  0  0  0  0  0  0  0  0  0  0  0
  130.6050  156.4880  133.6300 H   0  0  0  0  0  0  0  0  0  0  0  0
  130.0860  154.2090  130.6560 H   0  0  0  0  0  0  0  0  0  0  0  0
  131.9550  153.0100  130.6320 H   0  0  0  0  0  0  0  0  0  0  0  0
  133.7930  154.8420  129.8640 H   0  0  0  0  0  0  0  0  0  0  0  0
  132.2440  154.7480  134.8030 H   0  0  0  0  0  0  0  0  0  0  0  0
  136.2160  154.5330  133.8030 H   0  0  0  0  0  0  0  0  0  0  0  0
  135.6500  154.4940  131.5510 H   0  0  0  0  0  0  0  0  0  0  0  0
  131.0420  151.3410  129.9190 H   0  0  0  0  0  0  0  0  0  0  0  0
  133.3500  156.2620  136.5220 H   0  0  0  0  0  0  0  0  0  0  0  0
  133.9890  155.8180  137.7600 H   0  0  0  0  0  0  0  0  0  0  0  0
  132.4610  155.5570  128.1290 H   0  0  0  0  0  0  0  0  0  0  0  0
  132.2260  155.3080  125.8560 H   0  0  0  0  0  0  0  0  0  0  0  0
  131.4840  153.3190  124.9250 H   0  0  0  0  0  0  0  0  0  0  0  0
  130.6110  150.9760  125.2300 H   0  0  0  0  0  0  0  0  0  0  0  0
  130.0090  149.2330  126.6310 H   0  0  0  0  0  0  0  0  0  0  0  0
  131.2140  156.5990  129.8460 H   0  0  0  0  0  0  0  0  0  0  0  0
  129.6880  156.1740  129.9180 H   0  0  0  0  0  0  0  0  0  0  0  0
  130.2210  149.4360  128.9670 H   0  0  0  0  0  0  0  0  0  0  0  0
  152.9280  150.9000  130.4090 C   0  0  0  0  0  0  0  0  0  0  0  0
  153.5780  151.2450  131.6650 C   0  0  0  0  0  0  0  0  0  0  0  0
  152.9640  150.7600  132.7160 C   0  0  0  0  0  0  0  0  0  0  0  0
  151.7730  149.9020  132.3510 C   0  0  0  0  0  0  0  0  0  0  0  0
  151.6720  150.1070  130.8140 C   0  0  0  0  0  0  0  0  0  0  0  0
  151.2000  148.7960  130.1770 C   0  0  0  0  0  0  0  0  0  0  0  0
  152.1890  147.7790  130.4840 N   0  0  0  0  0  0  0  0  0  0  0  0
  152.3180  147.4830  131.8180 C   0  0  0  0  0  0  0  0  0  0  0  0
  152.1030  148.4830  132.7750 C   0  0  0  0  0  0  0  0  0  0  0  0
  152.2700  148.1600  134.1180 C   0  0  0  0  0  0  0  0  0  0  0  0
  152.6520  146.8830  134.4980 C   0  0  0  0  0  0  0  0  0  0  0  0
  152.8720  145.9020  133.5490 C   0  0  0  0  0  0  0  0  0  0  0  0
  152.7060  146.2080  132.2130 C   0  0  0  0  0  0  0  0  0  0  0  0
  152.8170  146.4760  136.2050 S   0  0  0  0  0  0  0  0  0  0  0  0
  151.5200  146.1560  136.6970 O   0  0  0  0  0  0  0  0  0  0  0  0
  153.8370  145.4830  136.3050 O   0  0  0  0  0  0  0  0  0  0  0  0
  153.3230  147.7650  136.9920 N   0  0  0  0  0  0  0  0  0  0  0  0
  150.9560  148.8920  128.6760 C   0  0  0  0  0  0  0  0  0  0  0  0
  152.0210  148.9210  127.8130 C   0  0  0  0  0  0  0  0  0  0  0  0
  151.8500  149.0060  126.4420 C   0  0  0  0  0  0  0  0  0  0  0  0
  150.6040  149.0640  125.9010 C   0  0  0  0  0  0  0  0  0  0  0  0
  149.4610  149.0440  126.7300 C   0  0  0  0  0  0  0  0  0  0  0  0
  148.1550  149.1580  126.2000 C   0  0  0  0  0  0  0  0  0  0  0  0
  147.0670  149.1810  127.0210 C   0  0  0  0  0  0  0  0  0  0  0  0
  147.2190  149.0950  128.3910 C   0  0  0  0  0  0  0  0  0  0  0  0
  148.4620  148.9830  128.9470 C   0  0  0  0  0  0  0  0  0  0  0  0
  149.6290  148.9540  128.1420 C   0  0  0  0  0  0  0  0  0  0  0  0
  150.9870  150.1930  132.8550 H   0  0  0  0  0  0  0  0  0  0  0  0
  154.3920  151.7870  131.7090 H   0  0  0  0  0  0  0  0  0  0  0  0
  153.2560  150.9350  133.6340 H   0  0  0  0  0  0  0  0  0  0  0  0
  150.9280  150.7240  130.6600 H   0  0  0  0  0  0  0  0  0  0  0  0
  150.3670  148.5750  130.6350 H   0  0  0  0  0  0  0  0  0  0  0  0
  152.6780  147.3950  129.8670 H   0  0  0  0  0  0  0  0  0  0  0  0
  152.1090  148.8380  134.8060 H   0  0  0  0  0  0  0  0  0  0  0  0
  153.1340  144.9950  133.8050 H   0  0  0  0  0  0  0  0  0  0  0  0
  152.9220  145.5210  131.5530 H   0  0  0  0  0  0  0  0  0  0  0  0
  148.4970  148.9270  129.9230 H   0  0  0  0  0  0  0  0  0  0  0  0
  153.8910  148.2550  136.5250 H   0  0  0  0  0  0  0  0  0  0  0  0
  153.6670  147.5090  137.7630 H   0  0  0  0  0  0  0  0  0  0  0  0
  152.9450  148.8830  128.1320 H   0  0  0  0  0  0  0  0  0  0  0  0
  152.6350  149.0300  125.8590 H   0  0  0  0  0  0  0  0  0  0  0  0
  150.5140  149.1200  124.9290 H   0  0  0  0  0  0  0  0  0  0  0  0
  148.0160  149.2250  125.2340 H   0  0  0  0  0  0  0  0  0  0  0  0
  146.1720  149.2570  126.6350 H   0  0  0  0  0  0  0  0  0  0  0  0
  153.5500  150.3910  129.8490 H   0  0  0  0  0  0  0  0  0  0  0  0
  152.6730  151.7110  129.9220 H   0  0  0  0  0  0  0  0  0  0  0  0
  146.4310  149.1180  128.9710 H   0  0  0  0  0  0  0  0  0  0  0  0
  1  2  1  0  0  0  0
  2  3  2  0  0  0  0
  3  4  1  0  0  0  0
  1  5  1  0  0  0  0
  4  5  1  0  0  0  0
  5  6  1  0  0  0  0
  6  7  1  0  0  0  0
  7  8  1  0  0  0  0
  4  9  1  0  0  0  0
  8  9  1  0  0  0  0
  9 10  2  0  0  0  0
 10 11  1  0  0  0  0
 11 12  2  0  0  0  0
  8 13  2  0  0  0  0
 12 13  1  0  0  0  0
 11 14  1  0  0  0  0
 14 15  2  0  0  0  0
 14 16  2  0  0  0  0
 14 17  1  0  0  0  0
  6 18  1  0  0  0  0
 18 19  2  0  0  0  0
 19 20  1  0  0  0  0
 20 21  2  0  0  0  0
 21 22  1  0  0  0  0
 22 23  2  0  0  0  0
 23 24  1  0  0  0  0
 24 25  2  0  0  0  0
 25 26  1  0  0  0  0
 18 27  1  0  0  0  0
 22 27  1  0  0  0  0
 26 27  2  0  0  0  0
  4 28  1  0  0  0  0
  2 29  1  0  0  0  0
  3 30  1  0  0  0  0
  5 31  1  0  0  0  0
  6 32  1  0  0  0  0
  7 33  1  0  0  0  0
 10 34  1  0  0  0  0
 12 35  1  0  0  0  0
 13 36  1  0  0  0  0
 26 37  1  0  0  0  0
 17 38  1  0  0  0  0
 17 39  1  0  0  0  0
 19 40  1  0  0  0  0
 20 41  1  0  0  0  0
 21 42  1  0  0  0  0
 23 43  1  0  0  0  0
 24 44  1  0  0  0  0
  1 45  1  0  0  0  0
  1 46  1  0  0  0  0
 25 47  1  0  0  0  0
 48 49  1  0  0  0  0
 49 50  2  0  0  0  0
 50 51  1  0  0  0  0
 48 52  1  0  0  0  0
 51 52  1  0  0  0  0
 52 53  1  0  0  0  0
 53 54  1  0  0  0  0
 54 55  1  0  0  0  0
 51 56  1  0  0  0  0
 55 56  1  0  0  0  0
 56 57  2  0  0  0  0
 57 58  1  0  0  0  0
 58 59  2  0  0  0  0
 55 60  2  0  0  0  0
 59 60  1  0  0  0  0
 58 61  1  0  0  0  0
 61 62  2  0  0  0  0
 61 63  2  0  0  0  0
 61 64  1  0  0  0  0
 53 65  1  0  0  0  0
 65 66  2  0  0  0  0
 66 67  1  0  0  0  0
 67 68  2  0  0  0  0
 68 69  1  0  0  0  0
 69 70  2  0  0  0  0
 70 71  1  0  0  0  0
 71 72  2  0  0  0  0
 72 73  1  0  0  0  0
 65 74  1  0  0  0  0
 69 74  1  0  0  0  0
 73 74  2  0  0  0  0
 51 75  1  0  0  0  0
 49 76  1  0  0  0  0
 50 77  1  0  0  0  0
 52 78  1  0  0  0  0
 53 79  1  0  0  0  0
 54 80  1  0  0  0  0
 57 81  1  0  0  0  0
 59 82  1  0  0  0  0
 60 83  1  0  0  0  0
 73 84  1  0  0  0  0
 64 85  1  0  0  0  0
 64 86  1  0  0  0  0
 66 87  1  0  0  0  0
 67 88  1  0  0  0  0
 68 89  1  0  0  0  0
 70 90  1  0  0  0  0
 71 91  1  0  0  0  0
 48 92  1  0  0  0  0
 48 93  1  0  0  0  0
 72 94  1  0  0  0  0
 95 96  1  0  0  0  0
 96 97  2  0  0  0  0
 97 98  1  0  0  0  0
 95 99  1  0  0  0  0
 98 99  1  0  0  0  0
 99100  1  0  0  0  0
100101  1  0  0  0  0
101102  1  0  0  0  0
 98103  1  0  0  0  0
102103  1  0  0  0  0
103104  2  0  0  0  0
104105  1  0  0  0  0
105106  2  0  0  0  0
102107  2  0  0  0  0
106107  1  0  0  0  0
105108  1  0  0  0  0
108109  2  0  0  0  0
108110  2  0  0  0  0
108111  1  0  0  0  0
100112  1  0  0  0  0
112113  2  0  0  0  0
113114  1  0  0  0  0
114115  2  0  0  0  0
115116  1  0  0  0  0
116117  2  0  0  0  0
117118  1  0  0  0  0
118119  2  0  0  0  0
119120  1  0  0  0  0
112121  1  0  0  0  0
116121  1  0  0  0  0
120121  2  0  0  0  0
 98122  1  0  0  0  0
 96123  1  0  0  0  0
 97124  1  0  0  0  0
 99125  1  0  0  0  0
100126  1  0  0  0  0
101127  1  0  0  0  0
104128  1  0  0  0  0
106129  1  0  0  0  0
107130  1  0  0  0  0
120131  1  0  0  0  0
111132  1  0  0  0  0
111133  1  0  0  0  0
113134  1  0  0  0  0
114135  1  0  0  0  0
115136  1  0  0  0  0
117137  1  0  0  0  0
118138  1  0  0  0  0
 95139  1  0  0  0  0
 95140  1  0  0  0  0
119141  1  0  0  0  0
142143  1  0  0  0  0
143144  2  0  0  0  0
144145  1  0  0  0  0
142146  1  0  0  0  0
145146  1  0  0  0  0
146147  1  0  0  0  0
147148  1  0  0  0  0
148149  1  0  0  0  0
145150  1  0  0  0  0
149150  1  0  0  0  0
150151  2  0  0  0  0
151152  1  0  0  0  0
152153  2  0  0  0  0
149154  2  0  0  0  0
153154  1  0  0  0  0
152155  1  0  0  0  0
155156  2  0  0  0  0
155157  2  0  0  0  0
155158  1  0  0  0  0
147159  1  0  0  0  0
159160  2  0  0  0  0
160161  1  0  0  0  0
161162  2  0  0  0  0
162163  1  0  0  0  0
163164  2  0  0  0  0
164165  1  0  0  0  0
165166  2  0  0  0  0
166167  1  0  0  0  0
159168  1  0  0  0  0
163168  1  0  0  0  0
167168  2  0  0  0  0
145169  1  0  0  0  0
143170  1  0  0  0  0
144171  1  0  0  0  0
146172  1  0  0  0  0
147173  1  0  0  0  0
148174  1  0  0  0  0
151175  1  0  0  0  0
153176  1  0  0  0  0
154177  1  0  0  0  0
167178  1  0  0  0  0
158179  1  0  0  0  0
158180  1  0  0  0  0
160181  1  0  0  0  0
161182  1  0  0  0  0
162183  1  0  0  0  0
164184  1  0  0  0  0
165185  1  0  0  0  0
142186  1  0  0  0  0
142187  1  0  0  0  0
166188  1  0  0  0  0
189190  1  0  0  0  0
190191  2  0  0  0  0
191192  1  0  0  0  0
189193  1  0  0  0  0
192193  1  0  0  0  0
193194  1  0  0  0  0
194195  1  0  0  0  0
195196  1  0  0  0  0
192197  1  0  0  0  0
196197  1  0  0  0  0
197198  2  0  0  0  0
198199  1  0  0  0  0
199200  2  0  0  0  0
196201  2  0  0  0  0
200201  1  0  0  0  0
199202  1  0  0  0  0
202203  2  0  0  0  0
202204  2  0  0  0  0
202205  1  0  0  0  0
194206  1  0  0  0  0
206207  2  0  0  0  0
207208  1  0  0  0  0
208209  2  0  0  0  0
209210  1  0  0  0  0
210211  2  0  0  0  0
211212  1  0  0  0  0
212213  2  0  0  0  0
213214  1  0  0  0  0
206215  1  0  0  0  0
210215  1  0  0  0  0
214215  2  0  0  0  0
192216  1  0  0  0  0
190217  1  0  0  0  0
191218  1  0  0  0  0
193219  1  0  0  0  0
194220  1  0  0  0  0
195221  1  0  0  0  0
198222  1  0  0  0  0
200223  1  0  0  0  0
201224  1  0  0  0  0
214225  1  0  0  0  0
205226  1  0  0  0  0
205227  1  0  0  0  0
207228  1  0  0  0  0
208229  1  0  0  0  0
209230  1  0  0  0  0
211231  1  0  0  0  0
212232  1  0  0  0  0
189233  1  0  0  0  0
189234  1  0  0  0  0
213235  1  0  0  0  0
M  END
$$$$
