7U0M
  PyMOL3.1          3D                             0

 23 25  0  0  0  0  0  0  0  0999 V2000
  -24.6600    1.8900    9.8670 N   0  0  0  0  0  0  0  0  0  0  0  0
  -27.3100    1.4290    9.3300 C   0  0  0  0  0  0  0  0  0  0  0  0
  -28.6380    1.2350    9.0680 O   0  0  0  0  0  0  0  0  0  0  0  0
  -26.7070    2.6360    8.9810 C   0  0  0  0  0  0  0  0  0  0  0  0
  -24.4170   -0.1370   10.8180 O   0  0  0  0  0  0  0  0  0  0  0  0
  -25.3950    2.8560    9.2370 C   0  0  0  0  0  0  0  0  0  0  0  0
  -24.6390    4.0920    8.8350 C   0  0  0  0  0  0  0  0  0  0  0  0
  -23.5350    3.7710    7.8080 C   0  0  0  0  0  0  0  0  0  0  0  0
  -22.8150    5.0000    7.2870 C   0  0  0  0  0  0  0  0  0  0  0  0
  -21.6680    4.6280    6.3570 C   0  0  0  0  0  0  0  0  0  0  0  0
  -22.0870    3.7450    5.1690 C   0  0  0  0  0  0  0  0  0  0  0  0
  -20.8410    3.2270    4.4340 C   0  0  0  0  0  0  0  0  0  0  0  0
  -22.9410    4.5570    4.1850 C   0  0  0  0  0  0  0  0  0  0  0  0
  -22.9020    2.5570    5.7030 C   0  0  0  0  0  0  0  0  0  0  0  0
  -24.0420    2.9600    6.6290 C   0  0  0  0  0  0  0  0  0  0  0  0
  -26.5820    0.4390   10.0020 C   0  0  0  0  0  0  0  0  0  0  0  0
  -27.1620   -0.8900   10.3300 C   0  0  0  0  0  0  0  0  0  0  0  0
  -27.7140   -1.6740    9.3190 C   0  0  0  0  0  0  0  0  0  0  0  0
  -28.2100   -2.9420    9.5830 C   0  0  0  0  0  0  0  0  0  0  0  0
  -28.1610   -3.4460   10.8620 C   0  0  0  0  0  0  0  0  0  0  0  0
  -27.5930   -2.6990   11.8690 C   0  0  0  0  0  0  0  0  0  0  0  0
  -27.0900   -1.4330   11.6080 C   0  0  0  0  0  0  0  0  0  0  0  0
  -25.1730    0.6730   10.2570 C   0  0  0  0  0  0  0  0  0  0  0  0
  2  3  1  0  0  0  0
  2  4  1  0  0  0  0
  1  6  1  0  0  0  0
  4  6  2  0  0  0  0
  6  7  1  0  0  0  0
  7  8  1  0  0  0  0
  8  9  1  0  0  0  0
  9 10  1  0  0  0  0
 10 11  1  0  0  0  0
 11 12  1  0  0  0  0
 11 13  1  0  0  0  0
 11 14  1  0  0  0  0
  8 15  1  0  0  0  0
 14 15  1  0  0  0  0
  2 16  2  0  0  0  0
 16 17  1  0  0  0  0
 17 18  2  0  0  0  0
 18 19  1  0  0  0  0
 19 20  2  0  0  0  0
 20 21  1  0  0  0  0
 17 22  1  0  0  0  0
 21 22  2  0  0  0  0
  1 23  1  0  0  0  0
  5 23  2  0  0  0  0
 16 23  1  0  0  0  0
M  END
$$$$
