7U0M
  PyMOL3.1          3D                             0

 23 25  0  0  0  0  0  0  0  0999 V2000
  -53.5540   30.8670   10.0100 N   0  0  0  0  0  0  0  0  0  0  0  0
  -50.9150   31.3400    9.4310 C   0  0  0  0  0  0  0  0  0  0  0  0
  -49.5960   31.5490    9.1460 O   0  0  0  0  0  0  0  0  0  0  0  0
  -51.5190   30.1300    9.0870 C   0  0  0  0  0  0  0  0  0  0  0  0
  -53.7900   32.9000   10.9470 O   0  0  0  0  0  0  0  0  0  0  0  0
  -52.8240   29.9020    9.3730 C   0  0  0  0  0  0  0  0  0  0  0  0
  -53.5810   28.6630    8.9850 C   0  0  0  0  0  0  0  0  0  0  0  0
  -54.6910   28.9730    7.9600 C   0  0  0  0  0  0  0  0  0  0  0  0
  -55.4140   27.7410    7.4520 C   0  0  0  0  0  0  0  0  0  0  0  0
  -56.5790   28.1190    6.5480 C   0  0  0  0  0  0  0  0  0  0  0  0
  -56.1800   28.9880    5.3440 C   0  0  0  0  0  0  0  0  0  0  0  0
  -57.4420   29.5010    4.6330 C   0  0  0  0  0  0  0  0  0  0  0  0
  -55.3530   28.1600    4.3500 C   0  0  0  0  0  0  0  0  0  0  0  0
  -55.3440   30.1750    5.8480 C   0  0  0  0  0  0  0  0  0  0  0  0
  -54.1980   29.7760    6.7700 C   0  0  0  0  0  0  0  0  0  0  0  0
  -51.6390   32.3290   10.1060 C   0  0  0  0  0  0  0  0  0  0  0  0
  -51.0660   33.6630   10.4240 C   0  0  0  0  0  0  0  0  0  0  0  0
  -50.5480   34.4600    9.4030 C   0  0  0  0  0  0  0  0  0  0  0  0
  -50.0640   35.7320    9.6610 C   0  0  0  0  0  0  0  0  0  0  0  0
  -50.0940   36.2300   10.9420 C   0  0  0  0  0  0  0  0  0  0  0  0
  -50.6290   35.4720   11.9580 C   0  0  0  0  0  0  0  0  0  0  0  0
  -51.1190   34.2000   11.7040 C   0  0  0  0  0  0  0  0  0  0  0  0
  -53.0380   32.0870   10.3890 C   0  0  0  0  0  0  0  0  0  0  0  0
  2  3  1  0  0  0  0
  2  4  1  0  0  0  0
  1  6  1  0  0  0  0
  4  6  2  0  0  0  0
  6  7  1  0  0  0  0
  7  8  1  0  0  0  0
  8  9  1  0  0  0  0
  9 10  1  0  0  0  0
 10 11  1  0  0  0  0
 11 12  1  0  0  0  0
 11 13  1  0  0  0  0
 11 14  1  0  0  0  0
  8 15  1  0  0  0  0
 14 15  1  0  0  0  0
  2 16  2  0  0  0  0
 16 17  1  0  0  0  0
 17 18  2  0  0  0  0
 18 19  1  0  0  0  0
 19 20  2  0  0  0  0
 20 21  1  0  0  0  0
 17 22  1  0  0  0  0
 21 22  2  0  0  0  0
  1 23  1  0  0  0  0
  5 23  2  0  0  0  0
 16 23  1  0  0  0  0
M  END
$$$$
