8PFO
  PyMOL3.1          3D                             0

 49 54  0  0  0  0  0  0  0  0999 V2000
   -9.7920    1.6180   26.5960 Cl  0  0  0  0  0  0  0  0  0  0  0  0
   -6.3800    0.9110   25.1110 C   0  0  0  0  0  0  0  0  0  0  0  0
   -6.1480    0.0290   23.8720 C   0  0  0  0  0  0  0  0  0  0  0  0
   -6.6470   -1.3780   24.0840 C   0  0  0  0  0  0  0  0  0  0  0  0
   -5.8410   -2.3180   24.6970 C   0  0  0  0  0  0  0  0  0  0  0  0
   -6.2290   -3.6990   24.8940 C   0  0  0  0  0  0  0  0  0  0  0  0
   -5.5410   -4.5830   25.3990 O   0  0  0  0  0  0  0  0  0  0  0  0
   -7.5010   -3.9780   24.4110 N   0  0  0  0  0  0  0  0  0  0  0  0
   -8.1260   -5.1950   24.5010 N   0  0  0  0  0  0  0  0  0  0  0  0
   -9.2940   -4.9230   23.9150 C   0  0  0  0  0  0  0  0  0  0  0  0
   -9.4450   -3.6280   23.4670 N   0  0  0  0  0  0  0  0  0  0  0  0
   -8.3040   -3.0810   23.8080 C   0  0  0  0  0  0  0  0  0  0  0  0
   -7.9330   -1.7600   23.6310 N   0  0  0  0  0  0  0  0  0  0  0  0
   -8.9170   -0.8000   23.1200 C   0  0  0  0  0  0  0  0  0  0  0  0
   -9.8390   -0.4270   24.2670 C   0  0  0  0  0  0  0  0  0  0  0  0
   -9.6950   -0.9380   25.3760 O   0  0  0  0  0  0  0  0  0  0  0  0
  -10.7450    0.5310   23.9750 N   0  0  0  0  0  0  0  0  0  0  0  0
  -11.7650    1.0250   24.8200 C   0  0  0  0  0  0  0  0  0  0  0  0
  -13.1060    1.0010   24.4360 C   0  0  0  0  0  0  0  0  0  0  0  0
  -14.0860    1.4410   25.3070 C   0  0  0  0  0  0  0  0  0  0  0  0
  -13.7570    1.9200   26.5700 C   0  0  0  0  0  0  0  0  0  0  0  0
  -12.4260    1.9500   26.9690 C   0  0  0  0  0  0  0  0  0  0  0  0
  -11.4500    1.5110   26.0960 C   0  0  0  0  0  0  0  0  0  0  0  0
  -14.8180    2.4450   27.4840 C   0  0  0  0  0  0  0  0  0  0  0  0
  -10.3440   -5.9220   23.7660 C   0  0  0  0  0  0  0  0  0  0  0  0
  -10.1960   -7.2470   24.4850 C   0  0  0  0  0  0  0  0  0  0  0  0
  -11.4630   -8.1240   24.3030 C   0  0  0  0  0  0  0  0  0  0  0  0
  -12.0160   -7.9860   22.9830 O   0  0  0  0  0  0  0  0  0  0  0  0
  -12.4730   -6.6610   22.7230 C   0  0  0  0  0  0  0  0  0  0  0  0
  -11.4250   -5.6410   23.0060 C   0  0  0  0  0  0  0  0  0  0  0  0
   -4.5710   -2.1610   25.1400 N   0  0  0  0  0  0  0  0  0  0  0  0
   -4.2800   -2.0130   26.5810 C   0  0  0  0  0  0  0  0  0  0  0  0
   -3.0860   -1.0900   26.7980 C   0  0  0  0  0  0  0  0  0  0  0  0
   -1.9450   -1.5400   25.9960 N   0  0  0  0  0  0  0  0  0  0  0  0
   -2.2450   -1.5320   24.5590 C   0  0  0  0  0  0  0  0  0  0  0  0
   -3.4220   -2.4700   24.2650 C   0  0  0  0  0  0  0  0  0  0  0  0
   -0.7970   -1.9340   26.5940 C   0  0  0  0  0  0  0  0  0  0  0  0
   -0.7280   -2.1580   27.7970 O   0  0  0  0  0  0  0  0  0  0  0  0
    0.4500   -2.0930   25.7620 C   0  0  0  0  0  0  0  0  0  0  0  0
    0.8620   -1.0410   25.0310 N   0  0  0  0  0  0  0  0  0  0  0  0
    1.9700   -1.2450   24.3120 C   0  0  0  0  0  0  0  0  0  0  0  0
    2.7190   -2.3500   24.2360 N   0  0  0  0  0  0  0  0  0  0  0  0
    2.2970   -3.3840   24.9690 C   0  0  0  0  0  0  0  0  0  0  0  0
    3.0840   -4.6580   24.8910 C   0  0  0  0  0  0  0  0  0  0  0  0
    1.1460   -3.2890   25.7660 C   0  0  0  0  0  0  0  0  0  0  0  0
    0.7650   -4.3310   26.5490 O   0  0  0  0  0  0  0  0  0  0  0  0
  -15.9990    1.9050   27.2450 F   0  0  0  0  0  0  0  0  0  0  0  0
  -14.5520    2.2080   28.7830 F   0  0  0  0  0  0  0  0  0  0  0  0
  -14.9890    3.7690   27.3610 F   0  0  0  0  0  0  0  0  0  0  0  0
  2  3  1  0  0  0  0
  3  4  1  0  0  0  0
  4  5  2  0  0  0  0
  5  6  1  0  0  0  0
  6  7  2  0  0  0  0
  6  8  1  0  0  0  0
  8  9  1  0  0  0  0
  9 10  2  0  0  0  0
 10 11  1  0  0  0  0
  8 12  1  0  0  0  0
 11 12  2  0  0  0  0
  4 13  1  0  0  0  0
 12 13  1  0  0  0  0
 13 14  1  0  0  0  0
 14 15  1  0  0  0  0
 15 16  2  0  0  0  0
 15 17  1  0  0  0  0
 17 18  1  0  0  0  0
 18 19  2  0  0  0  0
 19 20  1  0  0  0  0
 20 21  2  0  0  0  0
 21 22  1  0  0  0  0
  1 23  1  0  0  0  0
 18 23  1  0  0  0  0
 22 23  2  0  0  0  0
 21 24  1  0  0  0  0
 10 25  1  0  0  0  0
 25 26  1  0  0  0  0
 26 27  1  0  0  0  0
 27 28  1  0  0  0  0
 28 29  1  0  0  0  0
 25 30  2  0  0  0  0
 29 30  1  0  0  0  0
  5 31  1  0  0  0  0
 31 32  1  0  0  0  0
 32 33  1  0  0  0  0
 33 34  1  0  0  0  0
 34 35  1  0  0  0  0
 31 36  1  0  0  0  0
 35 36  1  0  0  0  0
 34 37  1  0  0  0  0
 37 38  2  0  0  0  0
 37 39  1  0  0  0  0
 39 40  2  0  0  0  0
 40 41  1  0  0  0  0
 41 42  2  0  0  0  0
 42 43  1  0  0  0  0
 43 44  1  0  0  0  0
 39 45  1  0  0  0  0
 43 45  2  0  0  0  0
 45 46  1  0  0  0  0
 24 47  1  0  0  0  0
 24 48  1  0  0  0  0
 24 49  1  0  0  0  0
M  END
$$$$
