8CWL
  PyMOL3.1          3D                             0

 30 34  0  0  0  0  0  0  0  0999 V2000
  140.5970  140.6490  140.2290 C   0  0  0  0  0  0  0  0  0  0  0  0
  141.1860  140.4620  141.4470 N   0  0  0  0  0  0  0  0  0  0  0  0
  141.4200  138.8340  136.2110 O   0  0  0  0  0  0  0  0  0  0  0  0
  140.5240  140.8490  142.5310 C   0  0  0  0  0  0  0  0  0  0  0  0
  138.7080  141.6190  141.2530 N   0  0  0  0  0  0  0  0  0  0  0  0
  144.2420  140.1230  147.8900 O   0  0  0  0  0  0  0  0  0  0  0  0
  139.2680  141.4440  142.4420 C   0  0  0  0  0  0  0  0  0  0  0  0
  142.1620  140.9260  135.7100 N   0  0  0  0  0  0  0  0  0  0  0  0
  139.3700  141.2210  140.1280 C   0  0  0  0  0  0  0  0  0  0  0  0
  142.0890  140.1930  148.8260 N   0  0  0  0  0  0  0  0  0  0  0  0
  138.7690  141.4090  138.8450 C   0  0  0  0  0  0  0  0  0  0  0  0
  139.4410  141.0040  137.6960 C   0  0  0  0  0  0  0  0  0  0  0  0
  140.7030  140.4170  137.7970 C   0  0  0  0  0  0  0  0  0  0  0  0
  141.2870  140.2320  139.0470 C   0  0  0  0  0  0  0  0  0  0  0  0
  141.4380  139.9700  136.5310 C   0  0  0  0  0  0  0  0  0  0  0  0
  142.6060  142.8510  133.5680 C   0  0  0  0  0  0  0  0  0  0  0  0
  141.8690  143.2400  134.7880 C   0  0  0  0  0  0  0  0  0  0  0  0
  142.2710  142.3920  135.9920 C   0  0  0  0  0  0  0  0  0  0  0  0
  142.9040  140.5650  134.4620 C   0  0  0  0  0  0  0  0  0  0  0  0
  142.4570  141.4100  133.2760 C   0  0  0  0  0  0  0  0  0  0  0  0
  142.2780  140.3810  146.4570 C   0  0  0  0  0  0  0  0  0  0  0  0
  143.1060  140.4240  145.2990 C   0  0  0  0  0  0  0  0  0  0  0  0
  142.5330  140.5730  144.0400 C   0  0  0  0  0  0  0  0  0  0  0  0
  141.1480  140.6730  143.9120 C   0  0  0  0  0  0  0  0  0  0  0  0
  140.3400  140.6380  145.0430 C   0  0  0  0  0  0  0  0  0  0  0  0
  140.9270  140.4860  146.3310 C   0  0  0  0  0  0  0  0  0  0  0  0
  140.1250  140.4410  147.5090 C   0  0  0  0  0  0  0  0  0  0  0  0
  140.7700  140.2920  148.7320 C   0  0  0  0  0  0  0  0  0  0  0  0
  142.7090  140.0380  150.1310 C   0  0  0  0  0  0  0  0  0  0  0  0
  142.8540  140.2310  147.7510 C   0  0  0  0  0  0  0  0  0  0  0  0
  1  2  1  0  0  0  0
  2  4  2  0  0  0  0
  4  7  1  0  0  0  0
  5  7  2  0  0  0  0
  1  9  1  0  0  0  0
  5  9  1  0  0  0  0
  9 11  2  0  0  0  0
 11 12  1  0  0  0  0
 12 13  2  0  0  0  0
  1 14  2  0  0  0  0
 13 14  1  0  0  0  0
  3 15  2  0  0  0  0
  8 15  1  0  0  0  0
 13 15  1  0  0  0  0
 16 17  1  0  0  0  0
  8 18  1  0  0  0  0
 17 18  1  0  0  0  0
  8 19  1  0  0  0  0
 16 20  1  0  0  0  0
 19 20  1  0  0  0  0
 21 22  2  0  0  0  0
 22 23  1  0  0  0  0
  4 24  1  0  0  0  0
 23 24  2  0  0  0  0
 24 25  1  0  0  0  0
 21 26  1  0  0  0  0
 25 26  2  0  0  0  0
 26 27  1  0  0  0  0
 10 28  1  0  0  0  0
 27 28  2  0  0  0  0
 10 29  1  0  0  0  0
  6 30  2  0  0  0  0
 10 30  1  0  0  0  0
 21 30  1  0  0  0  0
M  END
$$$$
