8R4Q
  PyMOL3.1          3D                             0

 36 39  0  0  0  0  0  0  0  0999 V2000
    8.0680   70.5890  -67.6410 C   0  0  0  0  0  0  0  0  0  0  0  0
   11.6910   73.4040  -64.9330 C   0  0  0  0  0  0  0  0  0  0  0  0
    9.0910   63.3750  -65.4710 C   0  0  0  0  0  0  0  0  0  0  0  0
   10.8440   64.9460  -65.1220 C   0  0  0  0  0  0  0  0  0  0  0  0
    5.1880   62.6910  -66.6460 C   0  0  0  0  0  0  0  0  0  0  0  0
    6.4110   64.0520  -64.5460 C   0  0  0  0  0  0  0  0  0  0  0  0
   11.1850   68.4970  -65.4330 C   0  0  0  0  0  0  0  0  0  0  0  0
    8.4980   68.2190  -66.0030 C   0  0  0  0  0  0  0  0  0  0  0  0
   12.7580   72.3980  -65.2790 C   0  0  0  0  0  0  0  0  0  0  0  0
   12.2050   71.0090  -65.1070 C   0  0  0  0  0  0  0  0  0  0  0  0
   12.2300   78.8070  -64.1190 C   0  0  0  0  0  0  0  0  0  0  0  0
   12.6100   75.4580  -65.6920 C   0  0  0  0  0  0  0  0  0  0  0  0
   11.2340   75.2670  -63.6220 C   0  0  0  0  0  0  0  0  0  0  0  0
   12.8970   76.9370  -65.3550 C   0  0  0  0  0  0  0  0  0  0  0  0
   11.3630   76.7900  -63.4170 C   0  0  0  0  0  0  0  0  0  0  0  0
    5.7040   62.8780  -64.2900 C   0  0  0  0  0  0  0  0  0  0  0  0
    5.0800   62.2120  -65.3440 C   0  0  0  0  0  0  0  0  0  0  0  0
    5.9250   63.8540  -66.8810 C   0  0  0  0  0  0  0  0  0  0  0  0
    8.7310   62.2800  -65.6050 N   0  0  0  0  0  0  0  0  0  0  0  0
   11.4090   66.1710  -65.0960 N   0  0  0  0  0  0  0  0  0  0  0  0
    7.2980   65.7200  -65.9730 N   0  0  0  0  0  0  0  0  0  0  0  0
    8.3090   70.5890  -66.2500 O   0  0  0  0  0  0  0  0  0  0  0  0
   10.9400   70.9340  -65.7520 O   0  0  0  0  0  0  0  0  0  0  0  0
    9.5150   64.7230  -65.4030 C   0  0  0  0  0  0  0  0  0  0  0  0
    6.5510   64.5480  -65.8410 C   0  0  0  0  0  0  0  0  0  0  0  0
    9.0830   69.4800  -66.0090 C   0  0  0  0  0  0  0  0  0  0  0  0
   10.4300   69.6390  -65.7220 C   0  0  0  0  0  0  0  0  0  0  0  0
    8.6810   65.8030  -65.6910 C   0  0  0  0  0  0  0  0  0  0  0  0
   10.6360   67.2190  -65.4250 C   0  0  0  0  0  0  0  0  0  0  0  0
    9.2690   67.0750  -65.7390 C   0  0  0  0  0  0  0  0  0  0  0  0
   12.2770   74.6660  -64.4890 N   0  0  0  0  0  0  0  0  0  0  0  0
   12.5680   77.4040  -63.9900 N   0  0  0  0  0  0  0  0  0  0  0  0
    4.1620   60.7910  -65.0620 Cl  0  0  0  0  0  0  0  0  0  0  0  0
    6.0270   64.4130  -68.4930 Cl  0  0  0  0  0  0  0  0  0  0  0  0
    6.7940   62.4280  -62.3190 C   0  0  0  0  0  0  0  0  0  0  0  0
    5.5550   62.3820  -63.0070 O   0  0  0  0  0  0  0  0  0  0  0  0
  2  9  1  0  0  0  0
  9 10  1  0  0  0  0
 12 14  1  0  0  0  0
 13 15  1  0  0  0  0
  6 16  1  0  0  0  0
  5 17  1  0  0  0  0
 16 17  2  0  0  0  0
  5 18  2  0  0  0  0
  3 19  3  0  0  0  0
  4 20  1  0  0  0  0
  1 22  1  0  0  0  0
 10 23  1  0  0  0  0
  3 24  1  0  0  0  0
  4 24  2  0  0  0  0
  6 25  2  0  0  0  0
 18 25  1  0  0  0  0
 21 25  1  0  0  0  0
  8 26  2  0  0  0  0
 22 26  1  0  0  0  0
  7 27  2  0  0  0  0
 23 27  1  0  0  0  0
 26 27  1  0  0  0  0
 21 28  1  0  0  0  0
 24 28  1  0  0  0  0
  7 29  1  0  0  0  0
 20 29  2  0  0  0  0
  8 30  1  0  0  0  0
 28 30  2  0  0  0  0
 29 30  1  0  0  0  0
  2 31  1  0  0  0  0
 12 31  1  0  0  0  0
 13 31  1  0  0  0  0
 11 32  1  0  0  0  0
 14 32  1  0  0  0  0
 15 32  1  0  0  0  0
 17 33  1  0  0  0  0
 18 34  1  0  0  0  0
 16 36  1  0  0  0  0
 35 36  1  0  0  0  0
M  END
$$$$
