8R4Q
  PyMOL3.1          3D                             0

 36 39  0  0  0  0  0  0  0  0999 V2000
    5.6580   21.3200  -18.7920 C   0  0  0  0  0  0  0  0  0  0  0  0
    0.6280   20.3020  -19.9390 C   0  0  0  0  0  0  0  0  0  0  0  0
    5.7890   22.9850  -11.3520 C   0  0  0  0  0  0  0  0  0  0  0  0
    3.7190   23.1330  -12.5490 C   0  0  0  0  0  0  0  0  0  0  0  0
    9.7560   21.9310  -11.3740 C   0  0  0  0  0  0  0  0  0  0  0  0
    7.3750   20.5270  -11.6080 C   0  0  0  0  0  0  0  0  0  0  0  0
    2.5870   22.2130  -15.8160 C   0  0  0  0  0  0  0  0  0  0  0  0
    5.1910   21.2480  -15.9050 C   0  0  0  0  0  0  0  0  0  0  0  0
    0.1220   21.4830  -19.1520 C   0  0  0  0  0  0  0  0  0  0  0  0
    0.8890   21.5840  -17.8620 C   0  0  0  0  0  0  0  0  0  0  0  0
   -1.6650   17.9510  -24.3250 C   0  0  0  0  0  0  0  0  0  0  0  0
   -0.3100   20.5730  -22.0640 C   0  0  0  0  0  0  0  0  0  0  0  0
   -0.0410   18.3490  -20.9890 C   0  0  0  0  0  0  0  0  0  0  0  0
   -1.1090   19.9180  -23.2150 C   0  0  0  0  0  0  0  0  0  0  0  0
   -0.6200   17.6970  -22.2580 C   0  0  0  0  0  0  0  0  0  0  0  0
    8.1600   20.3790  -10.4660 C   0  0  0  0  0  0  0  0  0  0  0  0
    9.3590   21.0750  -10.3510 C   0  0  0  0  0  0  0  0  0  0  0  0
    8.9460   22.0900  -12.4960 C   0  0  0  0  0  0  0  0  0  0  0  0
    6.4510   23.2860  -10.4480 N   0  0  0  0  0  0  0  0  0  0  0  0
    2.8920   22.9760  -13.6070 N   0  0  0  0  0  0  0  0  0  0  0  0
    6.8580   21.4880  -13.7190 N   0  0  0  0  0  0  0  0  0  0  0  0
    4.8030   20.4180  -18.1210 O   0  0  0  0  0  0  0  0  0  0  0  0
    2.2770   21.4020  -18.1230 O   0  0  0  0  0  0  0  0  0  0  0  0
    5.0230   22.6790  -12.5090 C   0  0  0  0  0  0  0  0  0  0  0  0
    7.7380   21.4020  -12.6270 C   0  0  0  0  0  0  0  0  0  0  0  0
    4.3500   21.0930  -17.0030 C   0  0  0  0  0  0  0  0  0  0  0  0
    3.0440   21.5690  -16.9710 C   0  0  0  0  0  0  0  0  0  0  0  0
    5.5510   22.0260  -13.6260 C   0  0  0  0  0  0  0  0  0  0  0  0
    3.4000   22.3850  -14.7050 C   0  0  0  0  0  0  0  0  0  0  0  0
    4.7320   21.9150  -14.7610 C   0  0  0  0  0  0  0  0  0  0  0  0
   -0.3950   19.7780  -20.8200 N   0  0  0  0  0  0  0  0  0  0  0  0
   -1.5850   18.5320  -22.9970 N   0  0  0  0  0  0  0  0  0  0  0  0
   10.3590   20.9140   -8.9570 Cl  0  0  0  0  0  0  0  0  0  0  0  0
    9.4910   23.1470  -13.7290 Cl  0  0  0  0  0  0  0  0  0  0  0  0
    6.4240   19.6380   -9.1560 C   0  0  0  0  0  0  0  0  0  0  0  0
    7.8040   19.5200   -9.4400 O   0  0  0  0  0  0  0  0  0  0  0  0
  2  9  1  0  0  0  0
  9 10  1  0  0  0  0
 12 14  1  0  0  0  0
 13 15  1  0  0  0  0
  6 16  1  0  0  0  0
  5 17  1  0  0  0  0
 16 17  2  0  0  0  0
  5 18  2  0  0  0  0
  3 19  3  0  0  0  0
  4 20  1  0  0  0  0
  1 22  1  0  0  0  0
 10 23  1  0  0  0  0
  3 24  1  0  0  0  0
  4 24  2  0  0  0  0
  6 25  2  0  0  0  0
 18 25  1  0  0  0  0
 21 25  1  0  0  0  0
  8 26  2  0  0  0  0
 22 26  1  0  0  0  0
  7 27  2  0  0  0  0
 23 27  1  0  0  0  0
 26 27  1  0  0  0  0
 21 28  1  0  0  0  0
 24 28  1  0  0  0  0
  7 29  1  0  0  0  0
 20 29  2  0  0  0  0
  8 30  1  0  0  0  0
 28 30  2  0  0  0  0
 29 30  1  0  0  0  0
  2 31  1  0  0  0  0
 12 31  1  0  0  0  0
 13 31  1  0  0  0  0
 11 32  1  0  0  0  0
 14 32  1  0  0  0  0
 15 32  1  0  0  0  0
 17 33  1  0  0  0  0
 18 34  1  0  0  0  0
 16 36  1  0  0  0  0
 35 36  1  0  0  0  0
M  END
$$$$
