8P1I
  PyMOL3.1          3D                             0

 47 50  0  0  0  0  0  0  0  0999 V2000
  142.8460  180.1460  144.4650 Cl  0  0  0  0  0  0  0  0  0  0  0  0
  142.2750  179.0510  135.4290 C   0  0  0  0  0  0  0  0  0  0  0  0
  143.4400  179.0140  134.5200 N   0  0  0  0  0  0  0  0  0  0  0  0
  142.7420  179.3450  136.8300 C   0  0  0  0  0  0  0  0  0  0  0  0
  143.8340  178.4620  137.2430 N   0  0  0  0  0  0  0  0  0  0  0  0
  144.8850  178.1400  136.2800 C   0  0  0  0  0  0  0  0  0  0  0  0
  143.8520  176.7770  142.5420 N   0  0  0  0  0  0  0  0  0  0  0  0
  144.3130  177.8860  134.9090 C   0  0  0  0  0  0  0  0  0  0  0  0
  143.5890  177.1110  144.7690 N   0  0  0  0  0  0  0  0  0  0  0  0
  143.8550  178.0460  138.5680 C   0  0  0  0  0  0  0  0  0  0  0  0
  143.8550  175.9860  147.4680 N   0  0  0  0  0  0  0  0  0  0  0  0
  143.5440  178.9410  139.5770 C   0  0  0  0  0  0  0  0  0  0  0  0
  143.5370  178.5340  140.9220 C   0  0  0  0  0  0  0  0  0  0  0  0
  143.8570  177.2070  141.2450 C   0  0  0  0  0  0  0  0  0  0  0  0
  144.1750  176.3060  140.2120 C   0  0  0  0  0  0  0  0  0  0  0  0
  144.1710  176.7240  138.9020 C   0  0  0  0  0  0  0  0  0  0  0  0
  143.2180  179.4330  141.9460 C   0  0  0  0  0  0  0  0  0  0  0  0
  143.2270  179.0050  143.2270 C   0  0  0  0  0  0  0  0  0  0  0  0
  143.5520  177.6480  143.5150 C   0  0  0  0  0  0  0  0  0  0  0  0
  142.8780  177.6330  145.9310 C   0  0  0  0  0  0  0  0  0  0  0  0
  142.5950  176.5580  146.9410 C   0  0  0  0  0  0  0  0  0  0  0  0
  144.9310  175.9550  146.4490 C   0  0  0  0  0  0  0  0  0  0  0  0
  144.3730  175.9140  145.0490 C   0  0  0  0  0  0  0  0  0  0  0  0
  143.1550  178.9100  133.6540 H   0  0  0  0  0  0  0  0  0  0  0  0
  143.9050  179.8020  134.5870 H   0  0  0  0  0  0  0  0  0  0  0  0
  141.6520  179.7440  135.1370 H   0  0  0  0  0  0  0  0  0  0  0  0
  141.8180  178.1890  135.4080 H   0  0  0  0  0  0  0  0  0  0  0  0
  141.9900  179.2400  137.4410 H   0  0  0  0  0  0  0  0  0  0  0  0
  143.0420  180.2730  136.8800 H   0  0  0  0  0  0  0  0  0  0  0  0
  145.3710  177.3490  136.5760 H   0  0  0  0  0  0  0  0  0  0  0  0
  145.5150  178.8820  136.2320 H   0  0  0  0  0  0  0  0  0  0  0  0
  145.0350  177.7870  134.2620 H   0  0  0  0  0  0  0  0  0  0  0  0
  143.7840  177.0710  134.9190 H   0  0  0  0  0  0  0  0  0  0  0  0
  143.3290  179.8400  139.3610 H   0  0  0  0  0  0  0  0  0  0  0  0
  144.3800  175.4110  140.4220 H   0  0  0  0  0  0  0  0  0  0  0  0
  144.3780  176.1040  138.2180 H   0  0  0  0  0  0  0  0  0  0  0  0
  143.0100  180.3240  141.7470 H   0  0  0  0  0  0  0  0  0  0  0  0
  143.4140  178.3420  146.3570 H   0  0  0  0  0  0  0  0  0  0  0  0
  142.0200  178.0180  145.6450 H   0  0  0  0  0  0  0  0  0  0  0  0
  142.0440  175.8670  146.5350 H   0  0  0  0  0  0  0  0  0  0  0  0
  142.0900  176.9410  147.6750 H   0  0  0  0  0  0  0  0  0  0  0  0
  143.6950  175.1330  147.7640 H   0  0  0  0  0  0  0  0  0  0  0  0
  144.1360  176.4880  148.1840 H   0  0  0  0  0  0  0  0  0  0  0  0
  145.4900  175.1690  146.5970 H   0  0  0  0  0  0  0  0  0  0  0  0
  145.4990  176.7450  146.5510 H   0  0  0  0  0  0  0  0  0  0  0  0
  145.1250  175.8530  144.4150 H   0  0  0  0  0  0  0  0  0  0  0  0
  143.8130  175.1150  144.9320 H   0  0  0  0  0  0  0  0  0  0  0  0
  2  3  1  0  0  0  0
  2  4  1  0  0  0  0
  4  5  1  0  0  0  0
  5  6  1  0  0  0  0
  3  8  1  0  0  0  0
  6  8  1  0  0  0  0
  5 10  1  0  0  0  0
 10 12  1  0  0  0  0
 12 13  2  0  0  0  0
  7 14  1  0  0  0  0
 13 14  1  0  0  0  0
 14 15  2  0  0  0  0
 10 16  2  0  0  0  0
 15 16  1  0  0  0  0
 13 17  1  0  0  0  0
  1 18  1  0  0  0  0
 17 18  2  0  0  0  0
  7 19  2  0  0  0  0
  9 19  1  0  0  0  0
 18 19  1  0  0  0  0
  9 20  1  0  0  0  0
 11 21  1  0  0  0  0
 20 21  1  0  0  0  0
 11 22  1  0  0  0  0
  9 23  1  0  0  0  0
 22 23  1  0  0  0  0
  3 24  1  0  0  0  0
  3 25  1  0  0  0  0
  2 26  1  0  0  0  0
  2 27  1  0  0  0  0
  4 28  1  0  0  0  0
  4 29  1  0  0  0  0
  6 30  1  0  0  0  0
  6 31  1  0  0  0  0
  8 32  1  0  0  0  0
  8 33  1  0  0  0  0
 12 34  1  0  0  0  0
 15 35  1  0  0  0  0
 16 36  1  0  0  0  0
 17 37  1  0  0  0  0
 20 38  1  0  0  0  0
 20 39  1  0  0  0  0
 21 40  1  0  0  0  0
 21 41  1  0  0  0  0
 11 42  1  0  0  0  0
 11 43  1  0  0  0  0
 22 44  1  0  0  0  0
 22 45  1  0  0  0  0
 23 46  1  0  0  0  0
 23 47  1  0  0  0  0
M  END
$$$$
