8W31
  PyMOL3.1          3D                             0

 37 42  0  0  0  0  0  0  0  0999 V2000
  -20.0750   41.4240  -41.6190 O   0  0  0  0  0  0  0  0  0  0  0  0
  -20.3960   40.8610  -40.5940 C   0  0  0  0  0  0  0  0  0  0  0  0
  -21.7350   40.2170  -40.4840 C   0  0  0  0  0  0  0  0  0  0  0  0
  -22.8810   40.9840  -40.6610 C   0  0  0  0  0  0  0  0  0  0  0  0
  -24.1370   40.4160  -40.5510 C   0  0  0  0  0  0  0  0  0  0  0  0
  -24.2810   39.0630  -40.2660 C   0  0  0  0  0  0  0  0  0  0  0  0
  -25.6260   38.4420  -40.2290 C   0  0  0  0  0  0  0  0  0  0  0  0
  -26.8330   39.0490  -39.9910 C   0  0  0  0  0  0  0  0  0  0  0  0
  -27.7750   38.0900  -40.1010 N   0  0  0  0  0  0  0  0  0  0  0  0
  -27.2400   36.8760  -40.4010 N   0  0  0  0  0  0  0  0  0  0  0  0
  -25.9420   37.0990  -40.4760 C   0  0  0  0  0  0  0  0  0  0  0  0
  -29.2170   38.2470  -39.9500 C   0  0  0  0  0  0  0  0  0  0  0  0
  -29.5440   39.7240  -39.8450 C   0  0  0  0  0  0  0  0  0  0  0  0
  -29.7780   40.3800  -41.2060 C   0  0  0  0  0  0  0  0  0  0  0  0
  -29.8340   41.8840  -41.1100 C   0  0  0  0  0  0  0  0  0  0  0  0
  -30.8870   42.5120  -40.4640 C   0  0  0  0  0  0  0  0  0  0  0  0
  -30.9450   43.8910  -40.3860 C   0  0  0  0  0  0  0  0  0  0  0  0
  -29.9520   44.6600  -40.9520 C   0  0  0  0  0  0  0  0  0  0  0  0
  -28.9000   44.0480  -41.5960 C   0  0  0  0  0  0  0  0  0  0  0  0
  -28.8400   42.6690  -41.6750 C   0  0  0  0  0  0  0  0  0  0  0  0
  -28.5210   40.4470  -39.0850 N   0  0  0  0  0  0  0  0  0  0  0  0
  -28.7640   41.0610  -37.9170 C   0  0  0  0  0  0  0  0  0  0  0  0
  -30.1510   41.0020  -37.3760 C   0  0  0  0  0  0  0  0  0  0  0  0
  -27.8840   41.6240  -37.3360 O   0  0  0  0  0  0  0  0  0  0  0  0
  -27.1840   40.4600  -39.6620 C   0  0  0  0  0  0  0  0  0  0  0  0
  -23.1330   38.2950  -40.0870 C   0  0  0  0  0  0  0  0  0  0  0  0
  -21.8780   38.8640  -40.1960 C   0  0  0  0  0  0  0  0  0  0  0  0
  -19.5710   40.8190  -39.5120 N   0  0  0  0  0  0  0  0  0  0  0  0
  -19.9130   40.3620  -38.2390 C   0  0  0  0  0  0  0  0  0  0  0  0
  -19.0160   39.5040  -37.6060 C   0  0  0  0  0  0  0  0  0  0  0  0
  -19.3220   39.0490  -36.3310 C   0  0  0  0  0  0  0  0  0  0  0  0
  -20.4890   39.4400  -35.7040 C   0  0  0  0  0  0  0  0  0  0  0  0
  -21.3640   40.2870  -36.3390 C   0  0  0  0  0  0  0  0  0  0  0  0
  -21.0860   40.7550  -37.6090 C   0  0  0  0  0  0  0  0  0  0  0  0
  -17.7490   39.1060  -38.3150 C   0  0  0  0  0  0  0  0  0  0  0  0
  -17.2100   40.1590  -39.2670 C   0  0  0  0  0  0  0  0  0  0  0  0
  -18.1790   41.2800  -39.5860 C   0  0  0  0  0  0  0  0  0  0  0  0
  1  2  2  0  0  0  0
  2  3  1  0  0  0  0
  3  4  1  0  0  0  0
  4  5  2  0  0  0  0
  5  6  1  0  0  0  0
  6  7  1  0  0  0  0
  7  8  2  0  0  0  0
  8  9  1  0  0  0  0
  9 10  1  0  0  0  0
  7 11  1  0  0  0  0
 10 11  2  0  0  0  0
  9 12  1  0  0  0  0
 12 13  1  0  0  0  0
 13 14  1  0  0  0  0
 14 15  1  0  0  0  0
 15 16  2  0  0  0  0
 16 17  1  0  0  0  0
 17 18  2  0  0  0  0
 18 19  1  0  0  0  0
 15 20  1  0  0  0  0
 19 20  2  0  0  0  0
 13 21  1  0  0  0  0
 21 22  1  0  0  0  0
 22 23  1  0  0  0  0
 22 24  2  0  0  0  0
  8 25  1  0  0  0  0
 21 25  1  0  0  0  0
  6 26  2  0  0  0  0
  3 27  2  0  0  0  0
 26 27  1  0  0  0  0
  2 28  1  0  0  0  0
 28 29  1  0  0  0  0
 29 30  1  0  0  0  0
 30 31  2  0  0  0  0
 31 32  1  0  0  0  0
 32 33  2  0  0  0  0
 29 34  2  0  0  0  0
 33 34  1  0  0  0  0
 30 35  1  0  0  0  0
 35 36  1  0  0  0  0
 28 37  1  0  0  0  0
 36 37  1  0  0  0  0
M  END
$$$$
