7MIP
  PyMOL3.1          3D                             0

220236  0  0  0  0  0  0  0  0999 V2000
  128.3380  165.4940  169.0240 C   0  0  0  0  0  0  0  0  0  0  0  0
  127.9220  166.7720  168.8140 N   0  0  0  0  0  0  0  0  0  0  0  0
  129.6810  165.2220  169.1490 O   0  0  0  0  0  0  0  0  0  0  0  0
  124.1620  176.4060  171.7320 S   0  0  0  0  0  0  0  0  0  0  0  0
  127.4210  164.4580  169.1020 C   0  0  0  0  0  0  0  0  0  0  0  0
  126.0900  164.6740  168.9700 N   0  0  0  0  0  0  0  0  0  0  0  0
  125.7260  173.3190  167.2420 O   0  0  0  0  0  0  0  0  0  0  0  0
  127.3500  176.8810  172.1560 S   0  0  0  0  0  0  0  0  0  0  0  0
  125.6820  165.9480  168.7570 C   0  0  0  0  0  0  0  0  0  0  0  0
  124.5070  170.1460  168.4230 N   0  0  0  0  0  0  0  0  0  0  0  0
  126.7410  178.1940  171.9580 O   0  0  0  0  0  0  0  0  0  0  0  0
  126.5930  167.0080  168.6700 C   0  0  0  0  0  0  0  0  0  0  0  0
  123.7940  172.7910  168.2950 N   0  0  0  0  0  0  0  0  0  0  0  0
  128.8130  176.8620  172.1730 O   0  0  0  0  0  0  0  0  0  0  0  0
  130.5710  166.3210  169.2530 C   0  0  0  0  0  0  0  0  0  0  0  0
  125.0800  174.9140  169.8820 N   0  0  0  0  0  0  0  0  0  0  0  0
  131.9860  165.7960  169.2050 C   0  0  0  0  0  0  0  0  0  0  0  0
  126.7780  175.8030  171.2010 N   0  0  0  0  0  0  0  0  0  0  0  0
  126.2000  168.4140  168.3880 C   0  0  0  0  0  0  0  0  0  0  0  0
  124.9040  168.8710  168.6370 C   0  0  0  0  0  0  0  0  0  0  0  0
  125.4120  171.0420  167.9300 C   0  0  0  0  0  0  0  0  0  0  0  0
  126.7220  170.6590  167.6320 C   0  0  0  0  0  0  0  0  0  0  0  0
  127.1110  169.3450  167.8660 C   0  0  0  0  0  0  0  0  0  0  0  0
  124.9880  172.4830  167.7700 C   0  0  0  0  0  0  0  0  0  0  0  0
  123.7740  174.9140  169.6950 C   0  0  0  0  0  0  0  0  0  0  0  0
  123.0580  175.6600  170.6240 C   0  0  0  0  0  0  0  0  0  0  0  0
  125.4830  175.6560  170.8730 C   0  0  0  0  0  0  0  0  0  0  0  0
  126.7520  176.3290  173.8550 C   0  0  0  0  0  0  0  0  0  0  0  0
  127.1270  174.9410  174.2840 C   0  0  0  0  0  0  0  0  0  0  0  0
  127.7660  176.1460  174.9490 C   0  0  0  0  0  0  0  0  0  0  0  0
  123.2670  174.1280  168.4860 C   0  0  0  0  0  0  0  0  0  0  0  0
  121.8250  174.2790  168.0720 C   0  0  0  0  0  0  0  0  0  0  0  0
  122.9100  174.9320  167.2580 C   0  0  0  0  0  0  0  0  0  0  0  0
  127.4350  175.1550  170.7900 H   0  0  0  0  0  0  0  0  0  0  0  0
  127.7760  163.4530  169.2720 H   0  0  0  0  0  0  0  0  0  0  0  0
  124.6270  166.1520  168.6520 H   0  0  0  0  0  0  0  0  0  0  0  0
  123.2080  172.0210  168.5840 H   0  0  0  0  0  0  0  0  0  0  0  0
  124.1800  168.1680  169.0210 H   0  0  0  0  0  0  0  0  0  0  0  0
  127.4230  171.3740  167.2260 H   0  0  0  0  0  0  0  0  0  0  0  0
  128.1220  169.0380  167.6440 H   0  0  0  0  0  0  0  0  0  0  0  0
  121.9830  175.7590  170.6510 H   0  0  0  0  0  0  0  0  0  0  0  0
  125.7670  176.6820  174.1610 H   0  0  0  0  0  0  0  0  0  0  0  0
  130.4040  166.8420  170.1960 H   0  0  0  0  0  0  0  0  0  0  0  0
  130.4060  167.0060  168.4220 H   0  0  0  0  0  0  0  0  0  0  0  0
  132.1320  165.2280  168.2860 H   0  0  0  0  0  0  0  0  0  0  0  0
  132.6850  166.6320  169.2300 H   0  0  0  0  0  0  0  0  0  0  0  0
  132.1630  165.1490  170.0640 H   0  0  0  0  0  0  0  0  0  0  0  0
  126.4130  174.3290  174.8350 H   0  0  0  0  0  0  0  0  0  0  0  0
  127.7690  174.3970  173.5910 H   0  0  0  0  0  0  0  0  0  0  0  0
  128.8150  176.3780  174.7660 H   0  0  0  0  0  0  0  0  0  0  0  0
  127.4100  176.3660  175.9550 H   0  0  0  0  0  0  0  0  0  0  0  0
  121.2820  173.4240  167.6690 H   0  0  0  0  0  0  0  0  0  0  0  0
  121.2340  174.9570  168.6870 H   0  0  0  0  0  0  0  0  0  0  0  0
  123.0190  176.0160  167.2660 H   0  0  0  0  0  0  0  0  0  0  0  0
  123.1310  174.4500  166.3060 H   0  0  0  0  0  0  0  0  0  0  0  0
  128.3370  149.5050  145.9780 C   0  0  0  0  0  0  0  0  0  0  0  0
  127.9210  148.2280  146.1890 N   0  0  0  0  0  0  0  0  0  0  0  0
  129.6800  149.7770  145.8530 O   0  0  0  0  0  0  0  0  0  0  0  0
  124.1620  138.5940  143.2720 S   0  0  0  0  0  0  0  0  0  0  0  0
  127.4200  150.5410  145.9000 C   0  0  0  0  0  0  0  0  0  0  0  0
  126.0890  150.3250  146.0310 N   0  0  0  0  0  0  0  0  0  0  0  0
  125.7260  141.6810  147.7630 O   0  0  0  0  0  0  0  0  0  0  0  0
  127.3490  138.1180  142.8470 S   0  0  0  0  0  0  0  0  0  0  0  0
  125.6810  149.0520  146.2460 C   0  0  0  0  0  0  0  0  0  0  0  0
  124.5080  144.8530  146.5790 N   0  0  0  0  0  0  0  0  0  0  0  0
  126.7400  136.8060  143.0460 O   0  0  0  0  0  0  0  0  0  0  0  0
  126.5920  147.9910  146.3340 C   0  0  0  0  0  0  0  0  0  0  0  0
  123.7950  142.2080  146.7090 N   0  0  0  0  0  0  0  0  0  0  0  0
  128.8120  138.1360  142.8300 O   0  0  0  0  0  0  0  0  0  0  0  0
  130.5700  148.6790  145.7470 C   0  0  0  0  0  0  0  0  0  0  0  0
  125.0800  140.0860  145.1210 N   0  0  0  0  0  0  0  0  0  0  0  0
  131.9850  149.2040  145.7970 C   0  0  0  0  0  0  0  0  0  0  0  0
  126.7780  139.1970  143.8020 N   0  0  0  0  0  0  0  0  0  0  0  0
  126.2000  146.5860  146.6160 C   0  0  0  0  0  0  0  0  0  0  0  0
  124.9050  146.1280  146.3640 C   0  0  0  0  0  0  0  0  0  0  0  0
  125.4120  143.9580  147.0750 C   0  0  0  0  0  0  0  0  0  0  0  0
  126.7210  144.3420  147.3770 C   0  0  0  0  0  0  0  0  0  0  0  0
  127.1090  145.6570  147.1430 C   0  0  0  0  0  0  0  0  0  0  0  0
  124.9880  142.5170  147.2350 C   0  0  0  0  0  0  0  0  0  0  0  0
  123.7740  140.0870  145.3090 C   0  0  0  0  0  0  0  0  0  0  0  0
  123.0570  139.3410  144.3790 C   0  0  0  0  0  0  0  0  0  0  0  0
  125.4830  139.3450  144.1300 C   0  0  0  0  0  0  0  0  0  0  0  0
  126.7510  138.6710  141.1480 C   0  0  0  0  0  0  0  0  0  0  0  0
  127.1250  140.0580  140.7180 C   0  0  0  0  0  0  0  0  0  0  0  0
  127.7650  138.8520  140.0540 C   0  0  0  0  0  0  0  0  0  0  0  0
  123.2670  140.8720  146.5180 C   0  0  0  0  0  0  0  0  0  0  0  0
  121.8250  140.7210  146.9310 C   0  0  0  0  0  0  0  0  0  0  0  0
  122.9110  140.0680  147.7460 C   0  0  0  0  0  0  0  0  0  0  0  0
  127.4350  139.8440  144.2130 H   0  0  0  0  0  0  0  0  0  0  0  0
  127.7760  151.5470  145.7300 H   0  0  0  0  0  0  0  0  0  0  0  0
  124.6260  148.8490  146.3520 H   0  0  0  0  0  0  0  0  0  0  0  0
  123.2090  142.9780  146.4190 H   0  0  0  0  0  0  0  0  0  0  0  0
  124.1810  146.8300  145.9760 H   0  0  0  0  0  0  0  0  0  0  0  0
  127.4210  143.6280  147.7860 H   0  0  0  0  0  0  0  0  0  0  0  0
  128.1190  145.9650  147.3690 H   0  0  0  0  0  0  0  0  0  0  0  0
  121.9820  139.2430  144.3510 H   0  0  0  0  0  0  0  0  0  0  0  0
  125.7660  138.3180  140.8420 H   0  0  0  0  0  0  0  0  0  0  0  0
  130.4030  148.1600  144.8030 H   0  0  0  0  0  0  0  0  0  0  0  0
  130.4050  147.9920  146.5770 H   0  0  0  0  0  0  0  0  0  0  0  0
  132.1300  149.7720  146.7160 H   0  0  0  0  0  0  0  0  0  0  0  0
  132.6840  148.3680  145.7720 H   0  0  0  0  0  0  0  0  0  0  0  0
  132.1630  149.8510  144.9380 H   0  0  0  0  0  0  0  0  0  0  0  0
  127.7140  140.6940  141.3790 H   0  0  0  0  0  0  0  0  0  0  0  0
  126.3770  140.5770  140.1180 H   0  0  0  0  0  0  0  0  0  0  0  0
  127.5100  138.5960  139.0260 H   0  0  0  0  0  0  0  0  0  0  0  0
  128.7980  138.6570  140.3400 H   0  0  0  0  0  0  0  0  0  0  0  0
  121.1490  140.1080  146.3340 H   0  0  0  0  0  0  0  0  0  0  0  0
  121.3750  141.6060  147.3810 H   0  0  0  0  0  0  0  0  0  0  0  0
  123.0210  138.9840  147.7380 H   0  0  0  0  0  0  0  0  0  0  0  0
  123.1320  140.5510  148.6980 H   0  0  0  0  0  0  0  0  0  0  0  0
  186.6810  165.4980  145.9820 C   0  0  0  0  0  0  0  0  0  0  0  0
  187.0970  166.7760  146.1910 N   0  0  0  0  0  0  0  0  0  0  0  0
  185.3380  165.2270  145.8560 O   0  0  0  0  0  0  0  0  0  0  0  0
  190.8600  176.4090  143.2710 S   0  0  0  0  0  0  0  0  0  0  0  0
  187.5980  164.4620  145.9040 C   0  0  0  0  0  0  0  0  0  0  0  0
  188.9290  164.6780  146.0360 N   0  0  0  0  0  0  0  0  0  0  0  0
  189.2940  173.3230  147.7620 O   0  0  0  0  0  0  0  0  0  0  0  0
  187.6720  176.8840  142.8470 S   0  0  0  0  0  0  0  0  0  0  0  0
  189.3370  165.9520  146.2490 C   0  0  0  0  0  0  0  0  0  0  0  0
  190.5130  170.1500  146.5820 N   0  0  0  0  0  0  0  0  0  0  0  0
  188.2810  178.1970  143.0440 O   0  0  0  0  0  0  0  0  0  0  0  0
  188.4260  167.0120  146.3360 C   0  0  0  0  0  0  0  0  0  0  0  0
  191.2260  172.7950  146.7100 N   0  0  0  0  0  0  0  0  0  0  0  0
  186.2090  176.8660  142.8290 O   0  0  0  0  0  0  0  0  0  0  0  0
  184.4480  166.3260  145.7520 C   0  0  0  0  0  0  0  0  0  0  0  0
  189.9410  174.9180  145.1220 N   0  0  0  0  0  0  0  0  0  0  0  0
  183.0330  165.8010  145.8000 C   0  0  0  0  0  0  0  0  0  0  0  0
  188.2430  175.8060  143.8020 N   0  0  0  0  0  0  0  0  0  0  0  0
  188.8200  168.4180  146.6170 C   0  0  0  0  0  0  0  0  0  0  0  0
  190.1160  168.8750  146.3680 C   0  0  0  0  0  0  0  0  0  0  0  0
  189.6080  171.0460  147.0750 C   0  0  0  0  0  0  0  0  0  0  0  0
  188.2980  170.6630  147.3730 C   0  0  0  0  0  0  0  0  0  0  0  0
  187.9090  169.3490  147.1390 C   0  0  0  0  0  0  0  0  0  0  0  0
  190.0320  172.4870  147.2340 C   0  0  0  0  0  0  0  0  0  0  0  0
  191.2470  174.9170  145.3090 C   0  0  0  0  0  0  0  0  0  0  0  0
  191.9630  175.6630  144.3800 C   0  0  0  0  0  0  0  0  0  0  0  0
  189.5380  175.6590  144.1300 C   0  0  0  0  0  0  0  0  0  0  0  0
  188.2700  176.3320  141.1480 C   0  0  0  0  0  0  0  0  0  0  0  0
  187.8950  174.9440  140.7190 C   0  0  0  0  0  0  0  0  0  0  0  0
  187.2560  176.1490  140.0540 C   0  0  0  0  0  0  0  0  0  0  0  0
  191.7530  174.1320  146.5180 C   0  0  0  0  0  0  0  0  0  0  0  0
  193.1950  174.2830  146.9330 C   0  0  0  0  0  0  0  0  0  0  0  0
  192.1100  174.9360  147.7460 C   0  0  0  0  0  0  0  0  0  0  0  0
  187.5860  175.1580  144.2130 H   0  0  0  0  0  0  0  0  0  0  0  0
  187.2430  163.4570  145.7340 H   0  0  0  0  0  0  0  0  0  0  0  0
  190.3920  166.1560  146.3540 H   0  0  0  0  0  0  0  0  0  0  0  0
  191.8130  172.0250  146.4220 H   0  0  0  0  0  0  0  0  0  0  0  0
  190.8400  168.1720  145.9840 H   0  0  0  0  0  0  0  0  0  0  0  0
  187.5970  171.3780  147.7790 H   0  0  0  0  0  0  0  0  0  0  0  0
  186.8980  169.0420  147.3610 H   0  0  0  0  0  0  0  0  0  0  0  0
  193.0380  175.7620  144.3540 H   0  0  0  0  0  0  0  0  0  0  0  0
  189.2550  176.6850  140.8420 H   0  0  0  0  0  0  0  0  0  0  0  0
  184.6140  167.0130  146.5820 H   0  0  0  0  0  0  0  0  0  0  0  0
  184.6150  166.8440  144.8080 H   0  0  0  0  0  0  0  0  0  0  0  0
  182.8870  165.2330  146.7190 H   0  0  0  0  0  0  0  0  0  0  0  0
  182.8570  165.1540  144.9410 H   0  0  0  0  0  0  0  0  0  0  0  0
  182.3340  166.6370  145.7750 H   0  0  0  0  0  0  0  0  0  0  0  0
  188.6090  174.3320  140.1680 H   0  0  0  0  0  0  0  0  0  0  0  0
  187.2530  174.4000  141.4120 H   0  0  0  0  0  0  0  0  0  0  0  0
  186.2070  176.3810  140.2370 H   0  0  0  0  0  0  0  0  0  0  0  0
  187.6120  176.3690  139.0480 H   0  0  0  0  0  0  0  0  0  0  0  0
  193.8720  174.8950  146.3370 H   0  0  0  0  0  0  0  0  0  0  0  0
  193.6440  173.3980  147.3830 H   0  0  0  0  0  0  0  0  0  0  0  0
  192.0010  176.0210  147.7380 H   0  0  0  0  0  0  0  0  0  0  0  0
  191.8880  174.4540  148.6980 H   0  0  0  0  0  0  0  0  0  0  0  0
  186.6740  149.5160  169.0320 C   0  0  0  0  0  0  0  0  0  0  0  0
  187.0900  148.2390  168.8220 N   0  0  0  0  0  0  0  0  0  0  0  0
  185.3310  149.7880  169.1570 O   0  0  0  0  0  0  0  0  0  0  0  0
  190.8470  138.6050  171.7420 S   0  0  0  0  0  0  0  0  0  0  0  0
  187.5920  150.5520  169.1100 C   0  0  0  0  0  0  0  0  0  0  0  0
  188.9230  150.3360  168.9800 N   0  0  0  0  0  0  0  0  0  0  0  0
  189.2850  141.6910  167.2500 O   0  0  0  0  0  0  0  0  0  0  0  0
  187.6600  138.1300  172.1670 S   0  0  0  0  0  0  0  0  0  0  0  0
  189.3300  149.0620  168.7650 C   0  0  0  0  0  0  0  0  0  0  0  0
  190.5030  144.8630  168.4330 N   0  0  0  0  0  0  0  0  0  0  0  0
  188.2690  136.8180  171.9680 O   0  0  0  0  0  0  0  0  0  0  0  0
  188.4190  148.0020  168.6770 C   0  0  0  0  0  0  0  0  0  0  0  0
  191.2150  142.2180  168.3040 N   0  0  0  0  0  0  0  0  0  0  0  0
  186.1970  138.1480  172.1830 O   0  0  0  0  0  0  0  0  0  0  0  0
  184.4410  148.6900  169.2630 C   0  0  0  0  0  0  0  0  0  0  0  0
  189.9300  140.0970  169.8930 N   0  0  0  0  0  0  0  0  0  0  0  0
  183.0260  149.2160  169.2120 C   0  0  0  0  0  0  0  0  0  0  0  0
  188.2310  139.2080  171.2120 N   0  0  0  0  0  0  0  0  0  0  0  0
  188.8110  146.5960  168.3960 C   0  0  0  0  0  0  0  0  0  0  0  0
  190.1060  146.1380  168.6480 C   0  0  0  0  0  0  0  0  0  0  0  0
  189.5990  143.9680  167.9380 C   0  0  0  0  0  0  0  0  0  0  0  0
  188.2900  144.3520  167.6350 C   0  0  0  0  0  0  0  0  0  0  0  0
  187.9020  145.6670  167.8690 C   0  0  0  0  0  0  0  0  0  0  0  0
  190.0230  142.5270  167.7780 C   0  0  0  0  0  0  0  0  0  0  0  0
  191.2360  140.0970  169.7050 C   0  0  0  0  0  0  0  0  0  0  0  0
  191.9520  139.3520  170.6350 C   0  0  0  0  0  0  0  0  0  0  0  0
  189.5260  139.3560  170.8840 C   0  0  0  0  0  0  0  0  0  0  0  0
  188.2580  138.6830  173.8660 C   0  0  0  0  0  0  0  0  0  0  0  0
  187.8840  140.0700  174.2950 C   0  0  0  0  0  0  0  0  0  0  0  0
  187.2430  138.8650  174.9590 C   0  0  0  0  0  0  0  0  0  0  0  0
  191.7430  140.8820  168.4960 C   0  0  0  0  0  0  0  0  0  0  0  0
  193.1850  140.7310  168.0830 C   0  0  0  0  0  0  0  0  0  0  0  0
  192.0990  140.0780  167.2680 C   0  0  0  0  0  0  0  0  0  0  0  0
  187.5740  139.8550  170.8010 H   0  0  0  0  0  0  0  0  0  0  0  0
  187.2370  151.5580  169.2790 H   0  0  0  0  0  0  0  0  0  0  0  0
  190.3850  148.8580  168.6590 H   0  0  0  0  0  0  0  0  0  0  0  0
  191.8010  142.9880  168.5940 H   0  0  0  0  0  0  0  0  0  0  0  0
  190.8300  146.8400  169.0360 H   0  0  0  0  0  0  0  0  0  0  0  0
  187.5900  143.6390  167.2250 H   0  0  0  0  0  0  0  0  0  0  0  0
  186.8920  145.9750  167.6430 H   0  0  0  0  0  0  0  0  0  0  0  0
  193.0270  139.2540  170.6630 H   0  0  0  0  0  0  0  0  0  0  0  0
  189.2430  138.3290  174.1720 H   0  0  0  0  0  0  0  0  0  0  0  0
  184.6070  148.1720  170.2070 H   0  0  0  0  0  0  0  0  0  0  0  0
  184.6070  148.0030  168.4340 H   0  0  0  0  0  0  0  0  0  0  0  0
  182.8820  149.7830  168.2930 H   0  0  0  0  0  0  0  0  0  0  0  0
  182.8480  149.8640  170.0700 H   0  0  0  0  0  0  0  0  0  0  0  0
  182.3270  148.3800  169.2370 H   0  0  0  0  0  0  0  0  0  0  0  0
  187.2950  140.7060  173.6330 H   0  0  0  0  0  0  0  0  0  0  0  0
  188.6320  140.5890  174.8950 H   0  0  0  0  0  0  0  0  0  0  0  0
  187.4960  138.6090  175.9880 H   0  0  0  0  0  0  0  0  0  0  0  0
  186.2100  138.6700  174.6720 H   0  0  0  0  0  0  0  0  0  0  0  0
  193.7280  141.5860  167.6800 H   0  0  0  0  0  0  0  0  0  0  0  0
  193.7760  140.0530  168.6980 H   0  0  0  0  0  0  0  0  0  0  0  0
  191.9890  138.9940  167.2760 H   0  0  0  0  0  0  0  0  0  0  0  0
  191.8780  140.5610  166.3160 H   0  0  0  0  0  0  0  0  0  0  0  0
  1  2  1  0  0  0  0
  1  3  1  0  0  0  0
  1  5  2  0  0  0  0
  5  6  1  0  0  0  0
  6  9  2  0  0  0  0
  8 11  2  0  0  0  0
  2 12  2  0  0  0  0
  9 12  1  0  0  0  0
  8 14  2  0  0  0  0
  3 15  1  0  0  0  0
 15 17  1  0  0  0  0
  8 18  1  0  0  0  0
 12 19  1  0  0  0  0
 10 20  2  0  0  0  0
 19 20  1  0  0  0  0
 10 21  1  0  0  0  0
 21 22  2  0  0  0  0
 19 23  2  0  0  0  0
 22 23  1  0  0  0  0
  7 24  2  0  0  0  0
 13 24  1  0  0  0  0
 21 24  1  0  0  0  0
 16 25  1  0  0  0  0
  4 26  1  0  0  0  0
 25 26  2  0  0  0  0
  4 27  1  0  0  0  0
 16 27  2  0  0  0  0
 18 27  1  0  0  0  0
  8 28  1  0  0  0  0
 28 29  1  0  0  0  0
 28 30  1  0  0  0  0
 29 30  1  0  0  0  0
 13 31  1  0  0  0  0
 25 31  1  0  0  0  0
 31 32  1  0  0  0  0
 31 33  1  0  0  0  0
 32 33  1  0  0  0  0
 18 34  1  0  0  0  0
  5 35  1  0  0  0  0
  9 36  1  0  0  0  0
 13 37  1  0  0  0  0
 20 38  1  0  0  0  0
 22 39  1  0  0  0  0
 23 40  1  0  0  0  0
 26 41  1  0  0  0  0
 28 42  1  0  0  0  0
 15 43  1  0  0  0  0
 15 44  1  0  0  0  0
 17 45  1  0  0  0  0
 17 46  1  0  0  0  0
 17 47  1  0  0  0  0
 29 48  1  0  0  0  0
 29 49  1  0  0  0  0
 30 50  1  0  0  0  0
 30 51  1  0  0  0  0
 32 52  1  0  0  0  0
 32 53  1  0  0  0  0
 33 54  1  0  0  0  0
 33 55  1  0  0  0  0
 56 57  1  0  0  0  0
 56 58  1  0  0  0  0
 56 60  2  0  0  0  0
 60 61  1  0  0  0  0
 61 64  2  0  0  0  0
 63 66  2  0  0  0  0
 57 67  2  0  0  0  0
 64 67  1  0  0  0  0
 63 69  2  0  0  0  0
 58 70  1  0  0  0  0
 70 72  1  0  0  0  0
 63 73  1  0  0  0  0
 67 74  1  0  0  0  0
 65 75  2  0  0  0  0
 74 75  1  0  0  0  0
 65 76  1  0  0  0  0
 76 77  2  0  0  0  0
 74 78  2  0  0  0  0
 77 78  1  0  0  0  0
 62 79  2  0  0  0  0
 68 79  1  0  0  0  0
 76 79  1  0  0  0  0
 71 80  1  0  0  0  0
 59 81  1  0  0  0  0
 80 81  2  0  0  0  0
 59 82  1  0  0  0  0
 71 82  2  0  0  0  0
 73 82  1  0  0  0  0
 63 83  1  0  0  0  0
 83 84  1  0  0  0  0
 83 85  1  0  0  0  0
 84 85  1  0  0  0  0
 68 86  1  0  0  0  0
 80 86  1  0  0  0  0
 86 87  1  0  0  0  0
 86 88  1  0  0  0  0
 87 88  1  0  0  0  0
 73 89  1  0  0  0  0
 60 90  1  0  0  0  0
 64 91  1  0  0  0  0
 68 92  1  0  0  0  0
 75 93  1  0  0  0  0
 77 94  1  0  0  0  0
 78 95  1  0  0  0  0
 81 96  1  0  0  0  0
 83 97  1  0  0  0  0
 70 98  1  0  0  0  0
 70 99  1  0  0  0  0
 72100  1  0  0  0  0
 72101  1  0  0  0  0
 72102  1  0  0  0  0
 84103  1  0  0  0  0
 84104  1  0  0  0  0
 85105  1  0  0  0  0
 85106  1  0  0  0  0
 87107  1  0  0  0  0
 87108  1  0  0  0  0
 88109  1  0  0  0  0
 88110  1  0  0  0  0
111112  1  0  0  0  0
111113  1  0  0  0  0
111115  2  0  0  0  0
115116  1  0  0  0  0
116119  2  0  0  0  0
118121  2  0  0  0  0
112122  2  0  0  0  0
119122  1  0  0  0  0
118124  2  0  0  0  0
113125  1  0  0  0  0
125127  1  0  0  0  0
118128  1  0  0  0  0
122129  1  0  0  0  0
120130  2  0  0  0  0
129130  1  0  0  0  0
120131  1  0  0  0  0
131132  2  0  0  0  0
129133  2  0  0  0  0
132133  1  0  0  0  0
117134  2  0  0  0  0
123134  1  0  0  0  0
131134  1  0  0  0  0
126135  1  0  0  0  0
114136  1  0  0  0  0
135136  2  0  0  0  0
114137  1  0  0  0  0
126137  2  0  0  0  0
128137  1  0  0  0  0
118138  1  0  0  0  0
138139  1  0  0  0  0
138140  1  0  0  0  0
139140  1  0  0  0  0
123141  1  0  0  0  0
135141  1  0  0  0  0
141142  1  0  0  0  0
141143  1  0  0  0  0
142143  1  0  0  0  0
128144  1  0  0  0  0
115145  1  0  0  0  0
119146  1  0  0  0  0
123147  1  0  0  0  0
130148  1  0  0  0  0
132149  1  0  0  0  0
133150  1  0  0  0  0
136151  1  0  0  0  0
138152  1  0  0  0  0
125153  1  0  0  0  0
125154  1  0  0  0  0
127155  1  0  0  0  0
127156  1  0  0  0  0
127157  1  0  0  0  0
139158  1  0  0  0  0
139159  1  0  0  0  0
140160  1  0  0  0  0
140161  1  0  0  0  0
142162  1  0  0  0  0
142163  1  0  0  0  0
143164  1  0  0  0  0
143165  1  0  0  0  0
166167  1  0  0  0  0
166168  1  0  0  0  0
166170  2  0  0  0  0
170171  1  0  0  0  0
171174  2  0  0  0  0
173176  2  0  0  0  0
167177  2  0  0  0  0
174177  1  0  0  0  0
173179  2  0  0  0  0
168180  1  0  0  0  0
180182  1  0  0  0  0
173183  1  0  0  0  0
177184  1  0  0  0  0
175185  2  0  0  0  0
184185  1  0  0  0  0
175186  1  0  0  0  0
186187  2  0  0  0  0
184188  2  0  0  0  0
187188  1  0  0  0  0
172189  2  0  0  0  0
178189  1  0  0  0  0
186189  1  0  0  0  0
181190  1  0  0  0  0
169191  1  0  0  0  0
190191  2  0  0  0  0
169192  1  0  0  0  0
181192  2  0  0  0  0
183192  1  0  0  0  0
173193  1  0  0  0  0
193194  1  0  0  0  0
193195  1  0  0  0  0
194195  1  0  0  0  0
178196  1  0  0  0  0
190196  1  0  0  0  0
196197  1  0  0  0  0
196198  1  0  0  0  0
197198  1  0  0  0  0
183199  1  0  0  0  0
170200  1  0  0  0  0
174201  1  0  0  0  0
178202  1  0  0  0  0
185203  1  0  0  0  0
187204  1  0  0  0  0
188205  1  0  0  0  0
191206  1  0  0  0  0
193207  1  0  0  0  0
180208  1  0  0  0  0
180209  1  0  0  0  0
182210  1  0  0  0  0
182211  1  0  0  0  0
182212  1  0  0  0  0
194213  1  0  0  0  0
194214  1  0  0  0  0
195215  1  0  0  0  0
195216  1  0  0  0  0
197217  1  0  0  0  0
197218  1  0  0  0  0
198219  1  0  0  0  0
198220  1  0  0  0  0
M  END
$$$$
