8QOJ
  PyMOL3.1          3D                             0

 42 44  0  0  0  0  0  0  0  0999 V2000
  139.7440  142.5440   96.4210 C   0  0  0  0  0  0  0  0  0  0  0  0
  140.2080  143.4960   95.4970 C   0  0  0  0  0  0  0  0  0  0  0  0
  138.8100  141.6200   96.0570 C   0  0  0  0  0  0  0  0  0  0  0  0
  136.8830  140.7510   93.0110 C   0  0  0  0  0  0  0  0  0  0  0  0
  138.5100  135.6140   95.1880 C   0  0  0  0  0  0  0  0  0  0  0  0
  138.9370  136.5770   94.0860 C   0  0  0  0  0  0  0  0  0  0  0  0
  138.2150  136.3740   96.4770 C   0  0  0  0  0  0  0  0  0  0  0  0
  137.9470  137.7300   93.9330 C   0  0  0  0  0  0  0  0  0  0  0  0
  137.4180  141.7430   92.1800 C   0  0  0  0  0  0  0  0  0  0  0  0
  137.3100  140.6670   94.3070 C   0  0  0  0  0  0  0  0  0  0  0  0
  139.7250  143.5100   94.2190 C   0  0  0  0  0  0  0  0  0  0  0  0
  138.2850  141.5990   94.7460 C   0  0  0  0  0  0  0  0  0  0  0  0
  138.7520  142.5590   93.8160 C   0  0  0  0  0  0  0  0  0  0  0  0
  136.7350  139.5880   95.2020 C   0  0  0  0  0  0  0  0  0  0  0  0
  137.7130  138.4030   95.2870 C   0  0  0  0  0  0  0  0  0  0  0  0
  136.9340  141.8260   90.7540 C   0  0  0  0  0  0  0  0  0  0  0  0
  140.2160  144.5240   93.2300 C   0  0  0  0  0  0  0  0  0  0  0  0
  138.3060  142.6120   92.5480 N   0  0  0  0  0  0  0  0  0  0  0  0
  137.2680  137.4660   96.3020 N   0  0  0  0  0  0  0  0  0  0  0  0
  135.4610  139.1910   94.7680 O   0  0  0  0  0  0  0  0  0  0  0  0
  137.2370  142.9820   90.1820 F   0  0  0  0  0  0  0  0  0  0  0  0
  137.4630  140.8480   90.0090 F   0  0  0  0  0  0  0  0  0  0  0  0
  135.6050  141.6780   90.6980 F   0  0  0  0  0  0  0  0  0  0  0  0
  140.7560  143.9400   92.1530 F   0  0  0  0  0  0  0  0  0  0  0  0
  141.1650  145.3110   93.7450 F   0  0  0  0  0  0  0  0  0  0  0  0
  139.2410  145.3160   92.7760 F   0  0  0  0  0  0  0  0  0  0  0  0
  140.8450  144.1120   95.7760 H   0  0  0  0  0  0  0  0  0  0  0  0
  140.0850  142.5480   97.2870 H   0  0  0  0  0  0  0  0  0  0  0  0
  138.5230  141.0020   96.6890 H   0  0  0  0  0  0  0  0  0  0  0  0
  136.2470  140.1600   92.6770 H   0  0  0  0  0  0  0  0  0  0  0  0
  136.5980  139.9430   96.0930 H   0  0  0  0  0  0  0  0  0  0  0  0
  135.1140  138.6650   95.3390 H   0  0  0  0  0  0  0  0  0  0  0  0
  138.5620  138.7570   95.5970 H   0  0  0  0  0  0  0  0  0  0  0  0
  137.1000  137.4010   93.5940 H   0  0  0  0  0  0  0  0  0  0  0  0
  138.2890  138.3580   93.2780 H   0  0  0  0  0  0  0  0  0  0  0  0
  139.8240  136.9250   94.2640 H   0  0  0  0  0  0  0  0  0  0  0  0
  138.9940  136.0960   93.2460 H   0  0  0  0  0  0  0  0  0  0  0  0
  139.2140  134.9680   95.3500 H   0  0  0  0  0  0  0  0  0  0  0  0
  137.7290  135.1090   94.9130 H   0  0  0  0  0  0  0  0  0  0  0  0
  139.0310  136.7370   96.8560 H   0  0  0  0  0  0  0  0  0  0  0  0
  137.8490  135.7640   97.1360 H   0  0  0  0  0  0  0  0  0  0  0  0
  137.1950  137.8910   97.0800 H   0  0  0  0  0  0  0  0  0  0  0  0
  1  2  1  0  0  0  0
  1  3  2  0  0  0  0
  5  6  1  0  0  0  0
  5  7  1  0  0  0  0
  6  8  1  0  0  0  0
  4  9  2  0  0  0  0
  4 10  1  0  0  0  0
  2 11  2  0  0  0  0
  3 12  1  0  0  0  0
 10 12  2  0  0  0  0
 11 13  1  0  0  0  0
 12 13  1  0  0  0  0
 10 14  1  0  0  0  0
  8 15  1  0  0  0  0
 14 15  1  0  0  0  0
  9 16  1  0  0  0  0
 11 17  1  0  0  0  0
  9 18  1  0  0  0  0
 13 18  2  0  0  0  0
  7 19  1  0  0  0  0
 15 19  1  0  0  0  0
 14 20  1  0  0  0  0
 16 21  1  0  0  0  0
 16 22  1  0  0  0  0
 16 23  1  0  0  0  0
 17 24  1  0  0  0  0
 17 25  1  0  0  0  0
 17 26  1  0  0  0  0
  2 27  1  0  0  0  0
  1 28  1  0  0  0  0
  3 29  1  0  0  0  0
  4 30  1  0  0  0  0
 14 31  1  0  0  0  0
 20 32  1  0  0  0  0
 15 33  1  0  0  0  0
  8 34  1  0  0  0  0
  8 35  1  0  0  0  0
  6 36  1  0  0  0  0
  6 37  1  0  0  0  0
  5 38  1  0  0  0  0
  5 39  1  0  0  0  0
  7 40  1  0  0  0  0
  7 41  1  0  0  0  0
 19 42  1  0  0  0  0
M  END
$$$$
