8QOJ
  PyMOL3.1          3D                             0

 42 44  0  0  0  0  0  0  0  0999 V2000
  124.2510  142.5400  167.5790 C   0  0  0  0  0  0  0  0  0  0  0  0
  123.7840  143.4920  168.5010 C   0  0  0  0  0  0  0  0  0  0  0  0
  125.1870  141.6190  167.9450 C   0  0  0  0  0  0  0  0  0  0  0  0
  127.1110  140.7580  170.9960 C   0  0  0  0  0  0  0  0  0  0  0  0
  125.4840  135.6200  168.7780 C   0  0  0  0  0  0  0  0  0  0  0  0
  125.0970  136.5550  169.9180 C   0  0  0  0  0  0  0  0  0  0  0  0
  125.7480  136.4090  167.5010 C   0  0  0  0  0  0  0  0  0  0  0  0
  126.0950  137.7010  170.0670 C   0  0  0  0  0  0  0  0  0  0  0  0
  126.5730  141.7500  171.8250 C   0  0  0  0  0  0  0  0  0  0  0  0
  126.6870  140.6720  169.7000 C   0  0  0  0  0  0  0  0  0  0  0  0
  124.2650  143.5100  169.7790 C   0  0  0  0  0  0  0  0  0  0  0  0
  125.7100  141.6000  169.2570 C   0  0  0  0  0  0  0  0  0  0  0  0
  125.2400  142.5610  170.1860 C   0  0  0  0  0  0  0  0  0  0  0  0
  127.2650  139.5920  168.8070 C   0  0  0  0  0  0  0  0  0  0  0  0
  126.2900  138.4060  168.7230 C   0  0  0  0  0  0  0  0  0  0  0  0
  127.0540  141.8360  173.2510 C   0  0  0  0  0  0  0  0  0  0  0  0
  123.7690  144.5230  170.7660 C   0  0  0  0  0  0  0  0  0  0  0  0
  125.6830  142.6170  171.4540 N   0  0  0  0  0  0  0  0  0  0  0  0
  126.7070  137.4910  167.6770 N   0  0  0  0  0  0  0  0  0  0  0  0
  128.5400  139.1990  169.2440 O   0  0  0  0  0  0  0  0  0  0  0  0
  126.8690  143.0380  173.7770 F   0  0  0  0  0  0  0  0  0  0  0  0
  126.4260  140.9440  174.0270 F   0  0  0  0  0  0  0  0  0  0  0  0
  128.3620  141.5550  173.3230 F   0  0  0  0  0  0  0  0  0  0  0  0
  123.2250  143.9390  171.8410 F   0  0  0  0  0  0  0  0  0  0  0  0
  122.8210  145.3100  170.2470 F   0  0  0  0  0  0  0  0  0  0  0  0
  124.7410  145.3160  171.2240 F   0  0  0  0  0  0  0  0  0  0  0  0
  123.1450  144.1060  168.2190 H   0  0  0  0  0  0  0  0  0  0  0  0
  123.9120  142.5420  166.7120 H   0  0  0  0  0  0  0  0  0  0  0  0
  125.4760  141.0010  167.3150 H   0  0  0  0  0  0  0  0  0  0  0  0
  127.7480  140.1690  171.3310 H   0  0  0  0  0  0  0  0  0  0  0  0
  127.4030  139.9470  167.9150 H   0  0  0  0  0  0  0  0  0  0  0  0
  128.8940  138.6830  168.6690 H   0  0  0  0  0  0  0  0  0  0  0  0
  125.4320  138.7620  168.4450 H   0  0  0  0  0  0  0  0  0  0  0  0
  125.7660  138.3380  170.7200 H   0  0  0  0  0  0  0  0  0  0  0  0
  126.9370  137.3570  170.4060 H   0  0  0  0  0  0  0  0  0  0  0  0
  124.2040  136.9090  169.7810 H   0  0  0  0  0  0  0  0  0  0  0  0
  125.0680  136.0520  170.7470 H   0  0  0  0  0  0  0  0  0  0  0  0
  124.7700  134.9830  168.6190 H   0  0  0  0  0  0  0  0  0  0  0  0
  126.2680  135.1010  169.0170 H   0  0  0  0  0  0  0  0  0  0  0  0
  124.9240  136.7870  167.1540 H   0  0  0  0  0  0  0  0  0  0  0  0
  126.0910  135.8140  166.8160 H   0  0  0  0  0  0  0  0  0  0  0  0
  126.7640  137.9340  166.9070 H   0  0  0  0  0  0  0  0  0  0  0  0
  1  2  1  0  0  0  0
  1  3  2  0  0  0  0
  5  6  1  0  0  0  0
  5  7  1  0  0  0  0
  6  8  1  0  0  0  0
  4  9  2  0  0  0  0
  4 10  1  0  0  0  0
  2 11  2  0  0  0  0
  3 12  1  0  0  0  0
 10 12  2  0  0  0  0
 11 13  1  0  0  0  0
 12 13  1  0  0  0  0
 10 14  1  0  0  0  0
  8 15  1  0  0  0  0
 14 15  1  0  0  0  0
  9 16  1  0  0  0  0
 11 17  1  0  0  0  0
  9 18  1  0  0  0  0
 13 18  2  0  0  0  0
  7 19  1  0  0  0  0
 15 19  1  0  0  0  0
 14 20  1  0  0  0  0
 16 21  1  0  0  0  0
 16 22  1  0  0  0  0
 16 23  1  0  0  0  0
 17 24  1  0  0  0  0
 17 25  1  0  0  0  0
 17 26  1  0  0  0  0
  2 27  1  0  0  0  0
  1 28  1  0  0  0  0
  3 29  1  0  0  0  0
  4 30  1  0  0  0  0
 14 31  1  0  0  0  0
 20 32  1  0  0  0  0
 15 33  1  0  0  0  0
  8 34  1  0  0  0  0
  8 35  1  0  0  0  0
  6 36  1  0  0  0  0
  6 37  1  0  0  0  0
  5 38  1  0  0  0  0
  5 39  1  0  0  0  0
  7 40  1  0  0  0  0
  7 41  1  0  0  0  0
 19 42  1  0  0  0  0
M  END
$$$$
