8QOJ
  PyMOL3.1          3D                             0

 42 44  0  0  0  0  0  0  0  0999 V2000
  118.9890  133.4360   96.4320 C   0  0  0  0  0  0  0  0  0  0  0  0
  117.9340  133.3570   95.5070 C   0  0  0  0  0  0  0  0  0  0  0  0
  120.2590  133.0980   96.0680 C   0  0  0  0  0  0  0  0  0  0  0  0
  121.9850  131.8830   93.0200 C   0  0  0  0  0  0  0  0  0  0  0  0
  125.6390  135.8450   95.2000 C   0  0  0  0  0  0  0  0  0  0  0  0
  124.6200  135.7220   94.0730 C   0  0  0  0  0  0  0  0  0  0  0  0
  125.0910  135.2350   96.4860 C   0  0  0  0  0  0  0  0  0  0  0  0
  124.1080  134.2900   93.9320 C   0  0  0  0  0  0  0  0  0  0  0  0
  120.8590  131.8440   92.1880 C   0  0  0  0  0  0  0  0  0  0  0  0
  121.8410  132.2900   94.3160 C   0  0  0  0  0  0  0  0  0  0  0  0
  118.1670  132.9360   94.2290 C   0  0  0  0  0  0  0  0  0  0  0  0
  120.5440  132.6600   94.7570 C   0  0  0  0  0  0  0  0  0  0  0  0
  119.4800  132.5780   93.8250 C   0  0  0  0  0  0  0  0  0  0  0  0
  123.0640  132.3370   95.2100 C   0  0  0  0  0  0  0  0  0  0  0  0
  123.6060  133.7750   95.2830 C   0  0  0  0  0  0  0  0  0  0  0  0
  121.0330  131.3890   90.7620 C   0  0  0  0  0  0  0  0  0  0  0  0
  117.0450  132.8500   93.2380 C   0  0  0  0  0  0  0  0  0  0  0  0
  119.6590  132.1700   92.5560 N   0  0  0  0  0  0  0  0  0  0  0  0
  124.6160  133.8690   96.3210 N   0  0  0  0  0  0  0  0  0  0  0  0
  124.0400  131.4230   94.7850 O   0  0  0  0  0  0  0  0  0  0  0  0
  119.8780  131.1290   90.1680 F   0  0  0  0  0  0  0  0  0  0  0  0
  121.6680  132.3170   90.0350 F   0  0  0  0  0  0  0  0  0  0  0  0
  121.7800  130.2800   90.7080 F   0  0  0  0  0  0  0  0  0  0  0  0
  117.2780  133.6090   92.1610 F   0  0  0  0  0  0  0  0  0  0  0  0
  115.8860  133.2730   93.7520 F   0  0  0  0  0  0  0  0  0  0  0  0
  116.8520  131.6080   92.7860 F   0  0  0  0  0  0  0  0  0  0  0  0
  117.0800  133.5940   95.7870 H   0  0  0  0  0  0  0  0  0  0  0  0
  118.8130  133.7260   97.2980 H   0  0  0  0  0  0  0  0  0  0  0  0
  120.9370  133.1620   96.7010 H   0  0  0  0  0  0  0  0  0  0  0  0
  122.8160  131.6330   92.6860 H   0  0  0  0  0  0  0  0  0  0  0  0
  122.8240  132.0490   96.1050 H   0  0  0  0  0  0  0  0  0  0  0  0
  124.6430  131.3490   95.3790 H   0  0  0  0  0  0  0  0  0  0  0  0
  122.8720  134.3420   95.5670 H   0  0  0  0  0  0  0  0  0  0  0  0
  123.3830  134.2640   93.2890 H   0  0  0  0  0  0  0  0  0  0  0  0
  124.8150  133.7250   93.5830 H   0  0  0  0  0  0  0  0  0  0  0  0
  125.0020  136.0210   93.2340 H   0  0  0  0  0  0  0  0  0  0  0  0
  123.8690  136.3080   94.2570 H   0  0  0  0  0  0  0  0  0  0  0  0
  125.8500  136.7790   95.3530 H   0  0  0  0  0  0  0  0  0  0  0  0
  126.4700  135.4100   94.9540 H   0  0  0  0  0  0  0  0  0  0  0  0
  124.3620  135.7700   96.8370 H   0  0  0  0  0  0  0  0  0  0  0  0
  125.7850  135.2300   97.1630 H   0  0  0  0  0  0  0  0  0  0  0  0
  124.2650  133.6060   97.0950 H   0  0  0  0  0  0  0  0  0  0  0  0
  1  2  1  0  0  0  0
  1  3  2  0  0  0  0
  5  6  1  0  0  0  0
  5  7  1  0  0  0  0
  6  8  1  0  0  0  0
  4  9  2  0  0  0  0
  4 10  1  0  0  0  0
  2 11  2  0  0  0  0
  3 12  1  0  0  0  0
 10 12  2  0  0  0  0
 11 13  1  0  0  0  0
 12 13  1  0  0  0  0
 10 14  1  0  0  0  0
  8 15  1  0  0  0  0
 14 15  1  0  0  0  0
  9 16  1  0  0  0  0
 11 17  1  0  0  0  0
  9 18  1  0  0  0  0
 13 18  2  0  0  0  0
  7 19  1  0  0  0  0
 15 19  1  0  0  0  0
 14 20  1  0  0  0  0
 16 21  1  0  0  0  0
 16 22  1  0  0  0  0
 16 23  1  0  0  0  0
 17 24  1  0  0  0  0
 17 25  1  0  0  0  0
 17 26  1  0  0  0  0
  2 27  1  0  0  0  0
  1 28  1  0  0  0  0
  3 29  1  0  0  0  0
  4 30  1  0  0  0  0
 14 31  1  0  0  0  0
 20 32  1  0  0  0  0
 15 33  1  0  0  0  0
  8 34  1  0  0  0  0
  8 35  1  0  0  0  0
  6 36  1  0  0  0  0
  6 37  1  0  0  0  0
  5 38  1  0  0  0  0
  5 39  1  0  0  0  0
  7 40  1  0  0  0  0
  7 41  1  0  0  0  0
 19 42  1  0  0  0  0
M  END
$$$$
