8QOJ
  PyMOL3.1          3D                             0

 42 44  0  0  0  0  0  0  0  0999 V2000
  118.9930  130.5580  167.5700 C   0  0  0  0  0  0  0  0  0  0  0  0
  117.9370  130.6360  168.4950 C   0  0  0  0  0  0  0  0  0  0  0  0
  120.2610  130.8990  167.9340 C   0  0  0  0  0  0  0  0  0  0  0  0
  121.9830  132.1230  170.9820 C   0  0  0  0  0  0  0  0  0  0  0  0
  125.6320  128.1540  168.7930 C   0  0  0  0  0  0  0  0  0  0  0  0
  124.6150  128.2770  169.9210 C   0  0  0  0  0  0  0  0  0  0  0  0
  125.0850  128.7680  167.5090 C   0  0  0  0  0  0  0  0  0  0  0  0
  124.1070  129.7100  170.0660 C   0  0  0  0  0  0  0  0  0  0  0  0
  120.8560  132.1600  171.8130 C   0  0  0  0  0  0  0  0  0  0  0  0
  121.8410  131.7130  169.6860 C   0  0  0  0  0  0  0  0  0  0  0  0
  118.1680  131.0590  169.7720 C   0  0  0  0  0  0  0  0  0  0  0  0
  120.5450  131.3400  169.2460 C   0  0  0  0  0  0  0  0  0  0  0  0
  119.4800  131.4200  170.1760 C   0  0  0  0  0  0  0  0  0  0  0  0
  123.0640  131.6670  168.7930 C   0  0  0  0  0  0  0  0  0  0  0  0
  123.6040  130.2290  168.7160 C   0  0  0  0  0  0  0  0  0  0  0  0
  121.0290  132.6180  173.2390 C   0  0  0  0  0  0  0  0  0  0  0  0
  117.0450  131.1450  170.7620 C   0  0  0  0  0  0  0  0  0  0  0  0
  119.6580  131.8310  171.4450 N   0  0  0  0  0  0  0  0  0  0  0  0
  124.6130  130.1350  167.6770 N   0  0  0  0  0  0  0  0  0  0  0  0
  124.0420  132.5780  169.2220 O   0  0  0  0  0  0  0  0  0  0  0  0
  119.8790  132.9410  173.8120 F   0  0  0  0  0  0  0  0  0  0  0  0
  121.6050  131.6660  173.9840 F   0  0  0  0  0  0  0  0  0  0  0  0
  121.8300  133.6900  173.2960 F   0  0  0  0  0  0  0  0  0  0  0  0
  117.2790  130.3860  171.8400 F   0  0  0  0  0  0  0  0  0  0  0  0
  115.8880  130.7190  170.2480 F   0  0  0  0  0  0  0  0  0  0  0  0
  116.8510  132.3860  171.2140 F   0  0  0  0  0  0  0  0  0  0  0  0
  117.0840  130.3960  168.2150 H   0  0  0  0  0  0  0  0  0  0  0  0
  118.8180  130.2670  166.7040 H   0  0  0  0  0  0  0  0  0  0  0  0
  120.9410  130.8360  167.3020 H   0  0  0  0  0  0  0  0  0  0  0  0
  122.8130  132.3740  171.3160 H   0  0  0  0  0  0  0  0  0  0  0  0
  122.8250  131.9580  167.8990 H   0  0  0  0  0  0  0  0  0  0  0  0
  124.6680  132.6180  168.6500 H   0  0  0  0  0  0  0  0  0  0  0  0
  122.8690  129.6640  168.4320 H   0  0  0  0  0  0  0  0  0  0  0  0
  123.3820  129.7360  170.7090 H   0  0  0  0  0  0  0  0  0  0  0  0
  124.8150  130.2730  170.4150 H   0  0  0  0  0  0  0  0  0  0  0  0
  123.8700  127.6740  169.7760 H   0  0  0  0  0  0  0  0  0  0  0  0
  125.0290  128.0050  170.7550 H   0  0  0  0  0  0  0  0  0  0  0  0
  126.4540  128.6070  169.0400 H   0  0  0  0  0  0  0  0  0  0  0  0
  125.8620  127.2240  168.6450 H   0  0  0  0  0  0  0  0  0  0  0  0
  124.3540  128.2350  167.1580 H   0  0  0  0  0  0  0  0  0  0  0  0
  125.7780  128.7720  166.8310 H   0  0  0  0  0  0  0  0  0  0  0  0
  124.2610  130.4000  166.9040 H   0  0  0  0  0  0  0  0  0  0  0  0
  1  2  1  0  0  0  0
  1  3  2  0  0  0  0
  5  6  1  0  0  0  0
  5  7  1  0  0  0  0
  6  8  1  0  0  0  0
  4  9  2  0  0  0  0
  4 10  1  0  0  0  0
  2 11  2  0  0  0  0
  3 12  1  0  0  0  0
 10 12  2  0  0  0  0
 11 13  1  0  0  0  0
 12 13  1  0  0  0  0
 10 14  1  0  0  0  0
  8 15  1  0  0  0  0
 14 15  1  0  0  0  0
  9 16  1  0  0  0  0
 11 17  1  0  0  0  0
  9 18  1  0  0  0  0
 13 18  2  0  0  0  0
  7 19  1  0  0  0  0
 15 19  1  0  0  0  0
 14 20  1  0  0  0  0
 16 21  1  0  0  0  0
 16 22  1  0  0  0  0
 16 23  1  0  0  0  0
 17 24  1  0  0  0  0
 17 25  1  0  0  0  0
 17 26  1  0  0  0  0
  2 27  1  0  0  0  0
  1 28  1  0  0  0  0
  3 29  1  0  0  0  0
  4 30  1  0  0  0  0
 14 31  1  0  0  0  0
 20 32  1  0  0  0  0
 15 33  1  0  0  0  0
  8 34  1  0  0  0  0
  8 35  1  0  0  0  0
  6 36  1  0  0  0  0
  6 37  1  0  0  0  0
  5 38  1  0  0  0  0
  5 39  1  0  0  0  0
  7 40  1  0  0  0  0
  7 41  1  0  0  0  0
 19 42  1  0  0  0  0
M  END
$$$$
