8QOJ
  PyMOL3.1          3D                             0

 42 44  0  0  0  0  0  0  0  0999 V2000
  139.8610  121.2780  167.8250 C   0  0  0  0  0  0  0  0  0  0  0  0
  140.2690  120.3270  168.7770 C   0  0  0  0  0  0  0  0  0  0  0  0
  138.9330  122.2240  168.1430 C   0  0  0  0  0  0  0  0  0  0  0  0
  136.9030  123.1590  171.1040 C   0  0  0  0  0  0  0  0  0  0  0  0
  138.5000  128.3340  169.1760 C   0  0  0  0  0  0  0  0  0  0  0  0
  138.8820  127.3520  170.2760 C   0  0  0  0  0  0  0  0  0  0  0  0
  138.3340  127.6050  167.8470 C   0  0  0  0  0  0  0  0  0  0  0  0
  137.9310  126.1590  170.3190 C   0  0  0  0  0  0  0  0  0  0  0  0
  137.3860  122.1660  171.9650 C   0  0  0  0  0  0  0  0  0  0  0  0
  137.3820  123.2250  169.8260 C   0  0  0  0  0  0  0  0  0  0  0  0
  139.7350  120.3360  170.0330 C   0  0  0  0  0  0  0  0  0  0  0  0
  138.3550  122.2700  169.4310 C   0  0  0  0  0  0  0  0  0  0  0  0
  138.7660  121.3100  170.3890 C   0  0  0  0  0  0  0  0  0  0  0  0
  136.8600  124.3100  168.9060 C   0  0  0  0  0  0  0  0  0  0  0  0
  137.8090  125.5220  168.9320 C   0  0  0  0  0  0  0  0  0  0  0  0
  136.8440  122.1070  173.3700 C   0  0  0  0  0  0  0  0  0  0  0  0
  140.1660  119.3230  171.0500 C   0  0  0  0  0  0  0  0  0  0  0  0
  138.2700  121.2770  171.6390 N   0  0  0  0  0  0  0  0  0  0  0  0
  137.4110  126.4810  167.9160 N   0  0  0  0  0  0  0  0  0  0  0  0
  135.5410  124.6640  169.2310 O   0  0  0  0  0  0  0  0  0  0  0  0
  137.0490  120.9330  173.9470 F   0  0  0  0  0  0  0  0  0  0  0  0
  137.4050  123.0470  174.1410 F   0  0  0  0  0  0  0  0  0  0  0  0
  135.5250  122.3410  173.3770 F   0  0  0  0  0  0  0  0  0  0  0  0
  140.6810  119.9080  172.1390 F   0  0  0  0  0  0  0  0  0  0  0  0
  141.1130  118.5090  170.5760 F   0  0  0  0  0  0  0  0  0  0  0  0
  139.1560  118.5600  171.4760 F   0  0  0  0  0  0  0  0  0  0  0  0
  140.9040  119.6950  168.5290 H   0  0  0  0  0  0  0  0  0  0  0  0
  140.2370  121.2580  166.9750 H   0  0  0  0  0  0  0  0  0  0  0  0
  138.6840  122.8420  167.4940 H   0  0  0  0  0  0  0  0  0  0  0  0
  136.2670  123.7660  171.4090 H   0  0  0  0  0  0  0  0  0  0  0  0
  136.8110  123.9720  167.9980 H   0  0  0  0  0  0  0  0  0  0  0  0
  135.4800  125.5080  169.3020 H   0  0  0  0  0  0  0  0  0  0  0  0
  138.6870  125.2010  168.6720 H   0  0  0  0  0  0  0  0  0  0  0  0
  138.2680  125.5010  170.9460 H   0  0  0  0  0  0  0  0  0  0  0  0
  137.0650  126.4450  170.6500 H   0  0  0  0  0  0  0  0  0  0  0  0
  139.7940  127.0440  170.1590 H   0  0  0  0  0  0  0  0  0  0  0  0
  138.8550  127.8070  171.1330 H   0  0  0  0  0  0  0  0  0  0  0  0
  139.1880  129.0120  169.0870 H   0  0  0  0  0  0  0  0  0  0  0  0
  137.6810  128.7990  169.4060 H   0  0  0  0  0  0  0  0  0  0  0  0
  139.1880  127.2780  167.5260 H   0  0  0  0  0  0  0  0  0  0  0  0
  138.0020  128.2230  167.1780 H   0  0  0  0  0  0  0  0  0  0  0  0
  137.4090  126.0790  167.1220 H   0  0  0  0  0  0  0  0  0  0  0  0
  1  2  1  0  0  0  0
  1  3  2  0  0  0  0
  5  6  1  0  0  0  0
  5  7  1  0  0  0  0
  6  8  1  0  0  0  0
  4  9  2  0  0  0  0
  4 10  1  0  0  0  0
  2 11  2  0  0  0  0
  3 12  1  0  0  0  0
 10 12  2  0  0  0  0
 11 13  1  0  0  0  0
 12 13  1  0  0  0  0
 10 14  1  0  0  0  0
  8 15  1  0  0  0  0
 14 15  1  0  0  0  0
  9 16  1  0  0  0  0
 11 17  1  0  0  0  0
  9 18  1  0  0  0  0
 13 18  2  0  0  0  0
  7 19  1  0  0  0  0
 15 19  1  0  0  0  0
 14 20  1  0  0  0  0
 16 21  1  0  0  0  0
 16 22  1  0  0  0  0
 16 23  1  0  0  0  0
 17 24  1  0  0  0  0
 17 25  1  0  0  0  0
 17 26  1  0  0  0  0
  2 27  1  0  0  0  0
  1 28  1  0  0  0  0
  3 29  1  0  0  0  0
  4 30  1  0  0  0  0
 14 31  1  0  0  0  0
 20 32  1  0  0  0  0
 15 33  1  0  0  0  0
  8 34  1  0  0  0  0
  8 35  1  0  0  0  0
  6 36  1  0  0  0  0
  6 37  1  0  0  0  0
  5 38  1  0  0  0  0
  5 39  1  0  0  0  0
  7 40  1  0  0  0  0
  7 41  1  0  0  0  0
 19 42  1  0  0  0  0
M  END
$$$$
