8QOJ
  PyMOL3.1          3D                             0

 42 44  0  0  0  0  0  0  0  0999 V2000
  124.2430  121.4550   96.4200 C   0  0  0  0  0  0  0  0  0  0  0  0
  123.7800  120.5050   95.4940 C   0  0  0  0  0  0  0  0  0  0  0  0
  125.1790  122.3770   96.0590 C   0  0  0  0  0  0  0  0  0  0  0  0
  127.1150  123.2450   93.0170 C   0  0  0  0  0  0  0  0  0  0  0  0
  125.5040  128.3890   95.1870 C   0  0  0  0  0  0  0  0  0  0  0  0
  125.0800  127.4320   94.0790 C   0  0  0  0  0  0  0  0  0  0  0  0
  125.7780  127.6240   96.4770 C   0  0  0  0  0  0  0  0  0  0  0  0
  126.0620  126.2710   93.9350 C   0  0  0  0  0  0  0  0  0  0  0  0
  126.5800  122.2540   92.1840 C   0  0  0  0  0  0  0  0  0  0  0  0
  126.6850  123.3290   94.3120 C   0  0  0  0  0  0  0  0  0  0  0  0
  124.2650  120.4900   94.2180 C   0  0  0  0  0  0  0  0  0  0  0  0
  125.7080  122.3990   94.7490 C   0  0  0  0  0  0  0  0  0  0  0  0
  125.2410  121.4400   93.8170 C   0  0  0  0  0  0  0  0  0  0  0  0
  127.2600  124.4080   95.2080 C   0  0  0  0  0  0  0  0  0  0  0  0
  126.2840  125.5940   95.2900 C   0  0  0  0  0  0  0  0  0  0  0  0
  127.0660  122.1710   90.7600 C   0  0  0  0  0  0  0  0  0  0  0  0
  123.7740  119.4770   93.2280 C   0  0  0  0  0  0  0  0  0  0  0  0
  125.6900  121.3860   92.5500 N   0  0  0  0  0  0  0  0  0  0  0  0
  126.7220  126.5280   96.3110 N   0  0  0  0  0  0  0  0  0  0  0  0
  128.5370  124.8000   94.7780 O   0  0  0  0  0  0  0  0  0  0  0  0
  126.7640  121.0160   90.1870 F   0  0  0  0  0  0  0  0  0  0  0  0
  126.5400  123.1500   90.0140 F   0  0  0  0  0  0  0  0  0  0  0  0
  128.3960  122.3180   90.7060 F   0  0  0  0  0  0  0  0  0  0  0  0
  123.2350  120.0620   92.1510 F   0  0  0  0  0  0  0  0  0  0  0  0
  122.8250  118.6900   93.7420 F   0  0  0  0  0  0  0  0  0  0  0  0
  124.7490  118.6850   92.7740 F   0  0  0  0  0  0  0  0  0  0  0  0
  123.1410  119.8890   95.7730 H   0  0  0  0  0  0  0  0  0  0  0  0
  123.9010  121.4510   97.2850 H   0  0  0  0  0  0  0  0  0  0  0  0
  125.4660  122.9950   96.6910 H   0  0  0  0  0  0  0  0  0  0  0  0
  127.7520  123.8350   92.6850 H   0  0  0  0  0  0  0  0  0  0  0  0
  127.3930  124.0520   96.1000 H   0  0  0  0  0  0  0  0  0  0  0  0
  128.8770  125.3370   95.3420 H   0  0  0  0  0  0  0  0  0  0  0  0
  125.4320  125.2420   95.5930 H   0  0  0  0  0  0  0  0  0  0  0  0
  126.9130  126.5940   93.6020 H   0  0  0  0  0  0  0  0  0  0  0  0
  125.7210  125.6450   93.2770 H   0  0  0  0  0  0  0  0  0  0  0  0
  124.1870  127.0910   94.2460 H   0  0  0  0  0  0  0  0  0  0  0  0
  125.0380  127.9140   93.2390 H   0  0  0  0  0  0  0  0  0  0  0  0
  126.3050  128.8670   94.9200 H   0  0  0  0  0  0  0  0  0  0  0  0
  124.8190  129.0590   95.3360 H   0  0  0  0  0  0  0  0  0  0  0  0
  126.1190  128.2190   97.1630 H   0  0  0  0  0  0  0  0  0  0  0  0
  124.9480  127.2530   96.8160 H   0  0  0  0  0  0  0  0  0  0  0  0
  126.7860  126.1010   97.0890 H   0  0  0  0  0  0  0  0  0  0  0  0
  1  2  1  0  0  0  0
  1  3  2  0  0  0  0
  5  6  1  0  0  0  0
  5  7  1  0  0  0  0
  6  8  1  0  0  0  0
  4  9  2  0  0  0  0
  4 10  1  0  0  0  0
  2 11  2  0  0  0  0
  3 12  1  0  0  0  0
 10 12  2  0  0  0  0
 11 13  1  0  0  0  0
 12 13  1  0  0  0  0
 10 14  1  0  0  0  0
  8 15  1  0  0  0  0
 14 15  1  0  0  0  0
  9 16  1  0  0  0  0
 11 17  1  0  0  0  0
  9 18  1  0  0  0  0
 13 18  2  0  0  0  0
  7 19  1  0  0  0  0
 15 19  1  0  0  0  0
 14 20  1  0  0  0  0
 16 21  1  0  0  0  0
 16 22  1  0  0  0  0
 16 23  1  0  0  0  0
 17 24  1  0  0  0  0
 17 25  1  0  0  0  0
 17 26  1  0  0  0  0
  2 27  1  0  0  0  0
  1 28  1  0  0  0  0
  3 29  1  0  0  0  0
  4 30  1  0  0  0  0
 14 31  1  0  0  0  0
 20 32  1  0  0  0  0
 15 33  1  0  0  0  0
  8 34  1  0  0  0  0
  8 35  1  0  0  0  0
  6 36  1  0  0  0  0
  6 37  1  0  0  0  0
  5 38  1  0  0  0  0
  5 39  1  0  0  0  0
  7 40  1  0  0  0  0
  7 41  1  0  0  0  0
 19 42  1  0  0  0  0
M  END
$$$$
