8QOJ
  PyMOL3.1          3D                             0

 42 44  0  0  0  0  0  0  0  0999 V2000
  126.7320  143.9720   96.4230 C   0  0  0  0  0  0  0  0  0  0  0  0
  126.1440  144.8520   95.4970 C   0  0  0  0  0  0  0  0  0  0  0  0
  127.0670  142.7030   96.0580 C   0  0  0  0  0  0  0  0  0  0  0  0
  126.8730  140.6060   93.0060 C   0  0  0  0  0  0  0  0  0  0  0  0
  132.1220  139.4220   95.2040 C   0  0  0  0  0  0  0  0  0  0  0  0
  131.5080  140.2510   94.0820 C   0  0  0  0  0  0  0  0  0  0  0  0
  131.3140  139.5730   96.4880 C   0  0  0  0  0  0  0  0  0  0  0  0
  130.0140  139.9710   93.9320 C   0  0  0  0  0  0  0  0  0  0  0  0
  126.2850  141.5680   92.1740 C   0  0  0  0  0  0  0  0  0  0  0  0
  127.1520  140.9310   94.3030 C   0  0  0  0  0  0  0  0  0  0  0  0
  125.8970  144.4440   94.2180 C   0  0  0  0  0  0  0  0  0  0  0  0
  126.8300  142.2400   94.7450 C   0  0  0  0  0  0  0  0  0  0  0  0
  126.2370  143.1260   93.8130 C   0  0  0  0  0  0  0  0  0  0  0  0
  127.7950  139.8900   95.1980 C   0  0  0  0  0  0  0  0  0  0  0  0
  129.3110  140.1360   95.2820 C   0  0  0  0  0  0  0  0  0  0  0  0
  125.9790  141.1940   90.7460 C   0  0  0  0  0  0  0  0  0  0  0  0
  125.2700  145.3780   93.2270 C   0  0  0  0  0  0  0  0  0  0  0  0
  125.9740  142.7700   92.5430 N   0  0  0  0  0  0  0  0  0  0  0  0
  129.8940  139.2980   96.3140 N   0  0  0  0  0  0  0  0  0  0  0  0
  127.4930  138.5900   94.7660 O   0  0  0  0  0  0  0  0  0  0  0  0
  125.1650  142.0590   90.1580 F   0  0  0  0  0  0  0  0  0  0  0  0
  127.0990  141.1240   90.0160 F   0  0  0  0  0  0  0  0  0  0  0  0
  125.4040  139.9860   90.6870 F   0  0  0  0  0  0  0  0  0  0  0  0
  126.0570  145.5660   92.1600 F   0  0  0  0  0  0  0  0  0  0  0  0
  125.0470  146.5880   93.7480 F   0  0  0  0  0  0  0  0  0  0  0  0
  124.1060  144.9230   92.7570 F   0  0  0  0  0  0  0  0  0  0  0  0
  125.9280  145.7110   95.7780 H   0  0  0  0  0  0  0  0  0  0  0  0
  126.8940  144.2670   97.2900 H   0  0  0  0  0  0  0  0  0  0  0  0
  127.4560  142.1430   96.6910 H   0  0  0  0  0  0  0  0  0  0  0  0
  127.0680  139.7610   92.6710 H   0  0  0  0  0  0  0  0  0  0  0  0
  127.4200  139.9520   96.0900 H   0  0  0  0  0  0  0  0  0  0  0  0
  127.8130  138.0230   95.3130 H   0  0  0  0  0  0  0  0  0  0  0  0
  129.4350  141.0520   95.5750 H   0  0  0  0  0  0  0  0  0  0  0  0
  129.8750  139.0660   93.6130 H   0  0  0  0  0  0  0  0  0  0  0  0
  129.6430  140.5670   93.2640 H   0  0  0  0  0  0  0  0  0  0  0  0
  131.6540  141.1970   94.2380 H   0  0  0  0  0  0  0  0  0  0  0  0
  131.9530  140.0390   93.2480 H   0  0  0  0  0  0  0  0  0  0  0  0
  132.1450  138.4870   94.9470 H   0  0  0  0  0  0  0  0  0  0  0  0
  133.0420  139.6890   95.3570 H   0  0  0  0  0  0  0  0  0  0  0  0
  131.6550  138.9850   97.1800 H   0  0  0  0  0  0  0  0  0  0  0  0
  131.4030  140.4790   96.8220 H   0  0  0  0  0  0  0  0  0  0  0  0
  129.4870  139.4620   97.0880 H   0  0  0  0  0  0  0  0  0  0  0  0
  1  2  1  0  0  0  0
  1  3  2  0  0  0  0
  5  6  1  0  0  0  0
  5  7  1  0  0  0  0
  6  8  1  0  0  0  0
  4  9  2  0  0  0  0
  4 10  1  0  0  0  0
  2 11  2  0  0  0  0
  3 12  1  0  0  0  0
 10 12  2  0  0  0  0
 11 13  1  0  0  0  0
 12 13  1  0  0  0  0
 10 14  1  0  0  0  0
  8 15  1  0  0  0  0
 14 15  1  0  0  0  0
  9 16  1  0  0  0  0
 11 17  1  0  0  0  0
  9 18  1  0  0  0  0
 13 18  2  0  0  0  0
  7 19  1  0  0  0  0
 15 19  1  0  0  0  0
 14 20  1  0  0  0  0
 16 21  1  0  0  0  0
 16 22  1  0  0  0  0
 16 23  1  0  0  0  0
 17 24  1  0  0  0  0
 17 25  1  0  0  0  0
 17 26  1  0  0  0  0
  2 27  1  0  0  0  0
  1 28  1  0  0  0  0
  3 29  1  0  0  0  0
  4 30  1  0  0  0  0
 14 31  1  0  0  0  0
 20 32  1  0  0  0  0
 15 33  1  0  0  0  0
  8 34  1  0  0  0  0
  8 35  1  0  0  0  0
  6 36  1  0  0  0  0
  6 37  1  0  0  0  0
  5 38  1  0  0  0  0
  5 39  1  0  0  0  0
  7 40  1  0  0  0  0
  7 41  1  0  0  0  0
 19 42  1  0  0  0  0
M  END
$$$$
