6YSN
  PyMOL3.1          3D                             0

 36 39  0  0  0  0  0  0  0  0999 V2000
  112.5650  133.4990  164.9020 Cl  0  0  0  0  0  0  0  0  0  0  0  0
  119.0910  136.3440  165.6790 O   0  0  0  0  0  0  0  0  0  0  0  0
  119.0560  137.2930  164.6440 C   0  0  0  0  0  0  0  0  0  0  0  0
  118.7840  136.8890  163.2870 C   0  0  0  0  0  0  0  0  0  0  0  0
  118.7690  137.8340  162.3510 C   0  0  0  0  0  0  0  0  0  0  0  0
  118.4940  137.2130  161.1610 N   0  0  0  0  0  0  0  0  0  0  0  0
  118.3680  135.9270  161.3870 C   0  0  0  0  0  0  0  0  0  0  0  0
  118.0700  134.9280  160.4230 O   0  0  0  0  0  0  0  0  0  0  0  0
  118.7920  134.9940  159.2330 C   0  0  0  0  0  0  0  0  0  0  0  0
  118.3150  134.2470  158.1430 C   0  0  0  0  0  0  0  0  0  0  0  0
  118.9970  134.2640  156.9060 C   0  0  0  0  0  0  0  0  0  0  0  0
  120.1370  135.0120  156.7550 C   0  0  0  0  0  0  0  0  0  0  0  0
  120.6340  135.7580  157.8300 C   0  0  0  0  0  0  0  0  0  0  0  0
  121.8150  136.5280  157.6620 O   0  0  0  0  0  0  0  0  0  0  0  0
  123.0450  135.8110  157.7490 C   0  0  0  0  0  0  0  0  0  0  0  0
  119.9480  135.7390  159.0730 C   0  0  0  0  0  0  0  0  0  0  0  0
  118.5270  135.6880  162.6540 N   0  0  0  0  0  0  0  0  0  0  0  0
  118.4370  134.3620  163.2890 C   0  0  0  0  0  0  0  0  0  0  0  0
  116.9800  134.1460  163.7110 C   0  0  0  0  0  0  0  0  0  0  0  0
  116.0130  133.6980  162.7390 C   0  0  0  0  0  0  0  0  0  0  0  0
  114.6770  133.5060  163.1200 C   0  0  0  0  0  0  0  0  0  0  0  0
  114.2890  133.7490  164.4150 C   0  0  0  0  0  0  0  0  0  0  0  0
  115.2420  134.1940  165.3730 C   0  0  0  0  0  0  0  0  0  0  0  0
  116.5980  134.3890  164.9820 C   0  0  0  0  0  0  0  0  0  0  0  0
  118.9980  139.1230  162.6700 N   0  0  0  0  0  0  0  0  0  0  0  0
  118.9770  140.1630  161.6090 C   0  0  0  0  0  0  0  0  0  0  0  0
  119.2510  139.4730  163.9580 C   0  0  0  0  0  0  0  0  0  0  0  0
  119.2740  138.5810  164.9000 N   0  0  0  0  0  0  0  0  0  0  0  0
  119.5670  139.0360  166.2790 C   0  0  0  0  0  0  0  0  0  0  0  0
  118.3350  138.9080  167.2450 C   0  0  0  0  0  0  0  0  0  0  0  0
  118.7710  138.3070  168.6300 C   0  0  0  0  0  0  0  0  0  0  0  0
  119.2240  139.4030  169.5000 O   0  0  0  0  0  0  0  0  0  0  0  0
  119.4510  140.6010  164.2210 O   0  0  0  0  0  0  0  0  0  0  0  0
  123.1260  135.1690  158.9780 F   0  0  0  0  0  0  0  0  0  0  0  0
  123.1420  134.8480  156.6940 F   0  0  0  0  0  0  0  0  0  0  0  0
  124.0520  136.6370  157.6390 F   0  0  0  0  0  0  0  0  0  0  0  0
  2  3  1  0  0  0  0
  3  4  4  0  0  0  0
  3 28  4  0  0  0  0
  4  5  4  0  0  0  0
  4 17  4  0  0  0  0
  5  6  4  0  0  0  0
  5 25  4  0  0  0  0
  6  7  4  0  0  0  0
  7  8  1  0  0  0  0
  7 17  4  0  0  0  0
  8  9  1  0  0  0  0
  9 10  4  0  0  0  0
  9 16  4  0  0  0  0
 10 11  4  0  0  0  0
 11 12  4  0  0  0  0
 12 13  4  0  0  0  0
 13 14  1  0  0  0  0
 13 16  4  0  0  0  0
 14 15  1  0  0  0  0
 15 34  1  0  0  0  0
 15 35  1  0  0  0  0
 15 36  1  0  0  0  0
 17 18  1  0  0  0  0
 18 19  1  0  0  0  0
 19 20  4  0  0  0  0
 19 24  4  0  0  0  0
 20 21  4  0  0  0  0
 21 22  4  0  0  0  0
  1 22  1  0  0  0  0
 22 23  4  0  0  0  0
 23 24  4  0  0  0  0
 25 26  1  0  0  0  0
 25 27  4  0  0  0  0
 27 28  4  0  0  0  0
 27 33  2  0  0  0  0
 28 29  1  0  0  0  0
 29 30  1  0  0  0  0
 30 31  1  0  0  0  0
 31 32  1  0  0  0  0
M  END
$$$$
