6YSN
  PyMOL3.1          3D                             0

 36 39  0  0  0  0  0  0  0  0999 V2000
  133.4980  161.3550  164.9010 Cl  0  0  0  0  0  0  0  0  0  0  0  0
  136.3440  154.8290  165.6780 O   0  0  0  0  0  0  0  0  0  0  0  0
  137.2930  154.8640  164.6440 C   0  0  0  0  0  0  0  0  0  0  0  0
  136.8880  155.1350  163.2870 C   0  0  0  0  0  0  0  0  0  0  0  0
  137.8340  155.1490  162.3500 C   0  0  0  0  0  0  0  0  0  0  0  0
  137.2130  155.4260  161.1620 N   0  0  0  0  0  0  0  0  0  0  0  0
  135.9280  155.5520  161.3880 C   0  0  0  0  0  0  0  0  0  0  0  0
  134.9270  155.8500  160.4240 O   0  0  0  0  0  0  0  0  0  0  0  0
  134.9930  155.1280  159.2330 C   0  0  0  0  0  0  0  0  0  0  0  0
  134.2460  155.6050  158.1450 C   0  0  0  0  0  0  0  0  0  0  0  0
  134.2620  154.9240  156.9060 C   0  0  0  0  0  0  0  0  0  0  0  0
  135.0100  153.7840  156.7540 C   0  0  0  0  0  0  0  0  0  0  0  0
  135.7570  153.2870  157.8280 C   0  0  0  0  0  0  0  0  0  0  0  0
  136.5280  152.1070  157.6590 O   0  0  0  0  0  0  0  0  0  0  0  0
  135.8130  150.8760  157.7500 C   0  0  0  0  0  0  0  0  0  0  0  0
  135.7380  153.9720  159.0720 C   0  0  0  0  0  0  0  0  0  0  0  0
  135.6880  155.3920  162.6550 N   0  0  0  0  0  0  0  0  0  0  0  0
  134.3630  155.4830  163.2900 C   0  0  0  0  0  0  0  0  0  0  0  0
  134.1460  156.9400  163.7100 C   0  0  0  0  0  0  0  0  0  0  0  0
  133.6980  157.9060  162.7390 C   0  0  0  0  0  0  0  0  0  0  0  0
  133.5070  159.2420  163.1210 C   0  0  0  0  0  0  0  0  0  0  0  0
  133.7490  159.6300  164.4160 C   0  0  0  0  0  0  0  0  0  0  0  0
  134.1940  158.6770  165.3730 C   0  0  0  0  0  0  0  0  0  0  0  0
  134.3890  157.3210  164.9810 C   0  0  0  0  0  0  0  0  0  0  0  0
  139.1230  154.9220  162.6700 N   0  0  0  0  0  0  0  0  0  0  0  0
  140.1630  154.9420  161.6100 C   0  0  0  0  0  0  0  0  0  0  0  0
  139.4740  154.6680  163.9580 C   0  0  0  0  0  0  0  0  0  0  0  0
  138.5810  154.6460  164.8990 N   0  0  0  0  0  0  0  0  0  0  0  0
  139.0350  154.3540  166.2790 C   0  0  0  0  0  0  0  0  0  0  0  0
  138.9090  155.5850  167.2460 C   0  0  0  0  0  0  0  0  0  0  0  0
  138.3050  155.1500  168.6310 C   0  0  0  0  0  0  0  0  0  0  0  0
  139.3990  154.6910  169.4980 O   0  0  0  0  0  0  0  0  0  0  0  0
  140.6010  154.4680  164.2220 O   0  0  0  0  0  0  0  0  0  0  0  0
  135.1860  150.7890  158.9860 F   0  0  0  0  0  0  0  0  0  0  0  0
  134.8370  150.7830  156.7070 F   0  0  0  0  0  0  0  0  0  0  0  0
  136.6390  149.8710  157.6250 F   0  0  0  0  0  0  0  0  0  0  0  0
  2  3  1  0  0  0  0
  3  4  4  0  0  0  0
  3 28  4  0  0  0  0
  4  5  4  0  0  0  0
  4 17  4  0  0  0  0
  5  6  4  0  0  0  0
  5 25  4  0  0  0  0
  6  7  4  0  0  0  0
  7  8  1  0  0  0  0
  7 17  4  0  0  0  0
  8  9  1  0  0  0  0
  9 10  4  0  0  0  0
  9 16  4  0  0  0  0
 10 11  4  0  0  0  0
 11 12  4  0  0  0  0
 12 13  4  0  0  0  0
 13 14  1  0  0  0  0
 13 16  4  0  0  0  0
 14 15  1  0  0  0  0
 15 34  1  0  0  0  0
 15 35  1  0  0  0  0
 15 36  1  0  0  0  0
 17 18  1  0  0  0  0
 18 19  1  0  0  0  0
 19 20  4  0  0  0  0
 19 24  4  0  0  0  0
 20 21  4  0  0  0  0
 21 22  4  0  0  0  0
  1 22  1  0  0  0  0
 22 23  4  0  0  0  0
 23 24  4  0  0  0  0
 25 26  1  0  0  0  0
 25 27  4  0  0  0  0
 27 28  4  0  0  0  0
 27 33  2  0  0  0  0
 28 29  1  0  0  0  0
 29 30  1  0  0  0  0
 30 31  1  0  0  0  0
 31 32  1  0  0  0  0
M  END
$$$$
