6YSN
  PyMOL3.1          3D                             0

 36 39  0  0  0  0  0  0  0  0999 V2000
  161.3560  140.4210  164.9010 Cl  0  0  0  0  0  0  0  0  0  0  0  0
  154.8290  137.5770  165.6790 O   0  0  0  0  0  0  0  0  0  0  0  0
  154.8650  136.6280  164.6450 C   0  0  0  0  0  0  0  0  0  0  0  0
  155.1360  137.0320  163.2880 C   0  0  0  0  0  0  0  0  0  0  0  0
  155.1500  136.0870  162.3510 C   0  0  0  0  0  0  0  0  0  0  0  0
  155.4270  136.7070  161.1630 N   0  0  0  0  0  0  0  0  0  0  0  0
  155.5530  137.9920  161.3880 C   0  0  0  0  0  0  0  0  0  0  0  0
  155.8510  138.9910  160.4230 O   0  0  0  0  0  0  0  0  0  0  0  0
  155.1290  138.9270  159.2330 C   0  0  0  0  0  0  0  0  0  0  0  0
  155.6050  139.6740  158.1440 C   0  0  0  0  0  0  0  0  0  0  0  0
  154.9220  139.6580  156.9060 C   0  0  0  0  0  0  0  0  0  0  0  0
  153.7830  138.9100  156.7560 C   0  0  0  0  0  0  0  0  0  0  0  0
  153.2860  138.1630  157.8300 C   0  0  0  0  0  0  0  0  0  0  0  0
  152.1060  137.3920  157.6610 O   0  0  0  0  0  0  0  0  0  0  0  0
  150.8750  138.1070  157.7500 C   0  0  0  0  0  0  0  0  0  0  0  0
  153.9720  138.1810  159.0730 C   0  0  0  0  0  0  0  0  0  0  0  0
  155.3930  138.2330  162.6550 N   0  0  0  0  0  0  0  0  0  0  0  0
  155.4830  139.5580  163.2900 C   0  0  0  0  0  0  0  0  0  0  0  0
  156.9410  139.7740  163.7100 C   0  0  0  0  0  0  0  0  0  0  0  0
  157.9070  140.2220  162.7390 C   0  0  0  0  0  0  0  0  0  0  0  0
  159.2430  140.4130  163.1200 C   0  0  0  0  0  0  0  0  0  0  0  0
  159.6310  140.1710  164.4150 C   0  0  0  0  0  0  0  0  0  0  0  0
  158.6790  139.7260  165.3730 C   0  0  0  0  0  0  0  0  0  0  0  0
  157.3220  139.5310  164.9820 C   0  0  0  0  0  0  0  0  0  0  0  0
  154.9230  134.7970  162.6710 N   0  0  0  0  0  0  0  0  0  0  0  0
  154.9440  133.7580  161.6110 C   0  0  0  0  0  0  0  0  0  0  0  0
  154.6690  134.4470  163.9600 C   0  0  0  0  0  0  0  0  0  0  0  0
  154.6470  135.3400  164.9000 N   0  0  0  0  0  0  0  0  0  0  0  0
  154.3530  134.8870  166.2790 C   0  0  0  0  0  0  0  0  0  0  0  0
  155.5840  135.0130  167.2470 C   0  0  0  0  0  0  0  0  0  0  0  0
  155.1500  135.6120  168.6350 C   0  0  0  0  0  0  0  0  0  0  0  0
  154.6930  134.5160  169.4990 O   0  0  0  0  0  0  0  0  0  0  0  0
  154.4700  133.3200  164.2240 O   0  0  0  0  0  0  0  0  0  0  0  0
  150.7910  138.7430  158.9820 F   0  0  0  0  0  0  0  0  0  0  0  0
  150.7800  139.0760  156.7000 F   0  0  0  0  0  0  0  0  0  0  0  0
  149.8700  137.2810  157.6330 F   0  0  0  0  0  0  0  0  0  0  0  0
  2  3  2  0  0  0  0
  3  4  1  0  0  0  0
  4  5  2  0  0  0  0
  5  6  1  0  0  0  0
  6  7  2  0  0  0  0
  7  8  1  0  0  0  0
  8  9  1  0  0  0  0
  9 10  2  0  0  0  0
 10 11  1  0  0  0  0
 11 12  2  0  0  0  0
 12 13  1  0  0  0  0
 13 14  1  0  0  0  0
 14 15  1  0  0  0  0
  9 16  1  0  0  0  0
 13 16  2  0  0  0  0
  4 17  1  0  0  0  0
  7 17  1  0  0  0  0
 17 18  1  0  0  0  0
 18 19  1  0  0  0  0
 19 20  1  0  0  0  0
 20 21  2  0  0  0  0
  1 22  1  0  0  0  0
 21 22  1  0  0  0  0
 22 23  2  0  0  0  0
 19 24  2  0  0  0  0
 23 24  1  0  0  0  0
  5 25  1  0  0  0  0
 25 26  1  0  0  0  0
 25 27  1  0  0  0  0
  3 28  1  0  0  0  0
 27 28  1  0  0  0  0
 28 29  1  0  0  0  0
 29 30  1  0  0  0  0
 30 31  1  0  0  0  0
 31 32  1  0  0  0  0
 27 33  2  0  0  0  0
 15 34  1  0  0  0  0
 15 35  1  0  0  0  0
 15 36  1  0  0  0  0
M  END
$$$$
