7T4W
  PyMOL3.1          3D                             0

 68 76  0  0  0  0  0  0  0  0999 V2000
   12.9630   13.4870  -19.2660 N   0  0  0  0  0  0  0  0  0  0  0  0
   11.5550   16.6670  -22.7750 C   0  0  0  0  0  0  0  0  0  0  0  0
   10.4110   16.8810  -21.9610 O   0  0  0  0  0  0  0  0  0  0  0  0
   15.6580   16.4490  -26.3670 Cl  0  0  0  0  0  0  0  0  0  0  0  0
   13.2940   11.6270  -26.2880 Cl  0  0  0  0  0  0  0  0  0  0  0  0
   11.9130   15.1960  -22.8690 C   0  0  0  0  0  0  0  0  0  0  0  0
   10.2370   12.6680  -17.7920 N   0  0  0  0  0  0  0  0  0  0  0  0
   12.4950   14.9300  -21.5680 O   0  0  0  0  0  0  0  0  0  0  0  0
   13.8210   14.3570  -21.4120 C   0  0  0  0  0  0  0  0  0  0  0  0
   11.6040   13.0100  -16.0650 N   0  0  0  0  0  0  0  0  0  0  0  0
   14.6870   15.3640  -20.6850 C   0  0  0  0  0  0  0  0  0  0  0  0
   14.0910   15.7080  -19.3220 C   0  0  0  0  0  0  0  0  0  0  0  0
   13.8210   14.4620  -18.5070 C   0  0  0  0  0  0  0  0  0  0  0  0
   12.5680   12.3400  -18.3830 C   0  0  0  0  0  0  0  0  0  0  0  0
   11.4880   12.6720  -17.3730 C   0  0  0  0  0  0  0  0  0  0  0  0
    9.4820   13.0330  -16.6770 C   0  0  0  0  0  0  0  0  0  0  0  0
    8.1060   13.2060  -16.5310 C   0  0  0  0  0  0  0  0  0  0  0  0
    7.6050   13.6000  -15.2970 C   0  0  0  0  0  0  0  0  0  0  0  0
    8.4610   13.8520  -14.2300 C   0  0  0  0  0  0  0  0  0  0  0  0
    9.8360   13.6980  -14.3680 C   0  0  0  0  0  0  0  0  0  0  0  0
   10.3270   13.2620  -15.5920 C   0  0  0  0  0  0  0  0  0  0  0  0
   13.6370   13.0930  -20.5660 C   0  0  0  0  0  0  0  0  0  0  0  0
   13.0210   11.9860  -21.3770 C   0  0  0  0  0  0  0  0  0  0  0  0
   11.6540   11.9610  -21.6280 C   0  0  0  0  0  0  0  0  0  0  0  0
   11.1050   10.9830  -22.4440 C   0  0  0  0  0  0  0  0  0  0  0  0
   11.9100   10.0110  -23.0040 C   0  0  0  0  0  0  0  0  0  0  0  0
   13.2670   10.0180  -22.7530 C   0  0  0  0  0  0  0  0  0  0  0  0
   13.8210   11.0020  -21.9490 C   0  0  0  0  0  0  0  0  0  0  0  0
   12.8190   14.8790  -24.0320 C   0  0  0  0  0  0  0  0  0  0  0  0
   13.7710   15.7390  -24.5700 C   0  0  0  0  0  0  0  0  0  0  0  0
   14.5230   15.3330  -25.6560 C   0  0  0  0  0  0  0  0  0  0  0  0
   14.3850   14.0780  -26.2120 C   0  0  0  0  0  0  0  0  0  0  0  0
   13.4500   13.2360  -25.6560 C   0  0  0  0  0  0  0  0  0  0  0  0
   12.6580   13.6170  -24.5930 C   0  0  0  0  0  0  0  0  0  0  0  0
   35.3040    7.8400    6.6270 N   0  0  0  0  0  0  0  0  0  0  0  0
   37.1560    9.7340    2.4440 C   0  0  0  0  0  0  0  0  0  0  0  0
   37.2290   10.9600    3.1610 O   0  0  0  0  0  0  0  0  0  0  0  0
   37.1980    5.3020   -0.7960 Cl  0  0  0  0  0  0  0  0  0  0  0  0
   32.0880    6.5810    0.2330 Cl  0  0  0  0  0  0  0  0  0  0  0  0
   35.8550    9.0100    2.7070 C   0  0  0  0  0  0  0  0  0  0  0  0
   34.1750   10.3980    8.1920 N   0  0  0  0  0  0  0  0  0  0  0  0
   36.0420    8.4770    4.0430 O   0  0  0  0  0  0  0  0  0  0  0  0
   35.8920    7.0670    4.3560 C   0  0  0  0  0  0  0  0  0  0  0  0
   35.1030    9.2060    9.8290 N   0  0  0  0  0  0  0  0  0  0  0  0
   37.2330    6.5620    4.8520 C   0  0  0  0  0  0  0  0  0  0  0  0
   37.6830    7.3400    6.0880 C   0  0  0  0  0  0  0  0  0  0  0  0
   36.6170    7.3330    7.1610 C   0  0  0  0  0  0  0  0  0  0  0  0
   34.3010    7.9840    7.7350 C   0  0  0  0  0  0  0  0  0  0  0  0
   34.5130    9.1930    8.6140 C   0  0  0  0  0  0  0  0  0  0  0  0
   34.6000   11.2680    9.1990 C   0  0  0  0  0  0  0  0  0  0  0  0
   34.5410   12.6570    9.3040 C   0  0  0  0  0  0  0  0  0  0  0  0
   35.0350   13.2680   10.4520 C   0  0  0  0  0  0  0  0  0  0  0  0
   35.5540   12.5060   11.5010 C   0  0  0  0  0  0  0  0  0  0  0  0
   35.6300   11.1230   11.4030 C   0  0  0  0  0  0  0  0  0  0  0  0
   35.1610   10.5250   10.2370 C   0  0  0  0  0  0  0  0  0  0  0  0
   34.8380    6.9830    5.4640 C   0  0  0  0  0  0  0  0  0  0  0  0
   33.4470    7.2600    4.9260 C   0  0  0  0  0  0  0  0  0  0  0  0
   33.0180    8.5550    4.6640 C   0  0  0  0  0  0  0  0  0  0  0  0
   31.7800    8.7900    4.0840 C   0  0  0  0  0  0  0  0  0  0  0  0
   30.9480    7.7330    3.7720 C   0  0  0  0  0  0  0  0  0  0  0  0
   31.3540    6.4430    4.0460 C   0  0  0  0  0  0  0  0  0  0  0  0
   32.5980    6.2070    4.6160 C   0  0  0  0  0  0  0  0  0  0  0  0
   35.5400    7.9650    1.6670 C   0  0  0  0  0  0  0  0  0  0  0  0
   36.4700    7.1980    0.9720 C   0  0  0  0  0  0  0  0  0  0  0  0
   36.0300    6.2730    0.0450 C   0  0  0  0  0  0  0  0  0  0  0  0
   34.6940    6.0840   -0.2250 C   0  0  0  0  0  0  0  0  0  0  0  0
   33.7890    6.8410    0.4850 C   0  0  0  0  0  0  0  0  0  0  0  0
   34.1870    7.7780    1.4140 C   0  0  0  0  0  0  0  0  0  0  0  0
  2  3  1  0  0  0  0
  2  6  1  0  0  0  0
  6  8  1  0  0  0  0
  8  9  1  0  0  0  0
  9 11  1  0  0  0  0
 11 12  1  0  0  0  0
  1 13  1  0  0  0  0
 12 13  1  0  0  0  0
  1 14  1  0  0  0  0
  7 15  2  0  0  0  0
 10 15  1  0  0  0  0
 14 15  1  0  0  0  0
  7 16  1  0  0  0  0
 16 17  2  0  0  0  0
 17 18  1  0  0  0  0
 18 19  2  0  0  0  0
 19 20  1  0  0  0  0
 10 21  1  0  0  0  0
 16 21  1  0  0  0  0
 20 21  2  0  0  0  0
  1 22  1  0  0  0  0
  9 22  1  0  0  0  0
 22 23  1  0  0  0  0
 23 24  1  0  0  0  0
 24 25  2  0  0  0  0
 25 26  1  0  0  0  0
 26 27  2  0  0  0  0
 23 28  2  0  0  0  0
 27 28  1  0  0  0  0
  6 29  1  0  0  0  0
 29 30  1  0  0  0  0
  4 31  1  0  0  0  0
 30 31  2  0  0  0  0
 31 32  1  0  0  0  0
  5 33  1  0  0  0  0
 32 33  2  0  0  0  0
 29 34  2  0  0  0  0
 33 34  1  0  0  0  0
 36 37  1  0  0  0  0
 36 40  1  0  0  0  0
 40 42  1  0  0  0  0
 42 43  1  0  0  0  0
 43 45  1  0  0  0  0
 45 46  1  0  0  0  0
 35 47  1  0  0  0  0
 46 47  1  0  0  0  0
 35 48  1  0  0  0  0
 41 49  2  0  0  0  0
 44 49  1  0  0  0  0
 48 49  1  0  0  0  0
 41 50  1  0  0  0  0
 50 51  2  0  0  0  0
 51 52  1  0  0  0  0
 52 53  2  0  0  0  0
 53 54  1  0  0  0  0
 44 55  1  0  0  0  0
 50 55  1  0  0  0  0
 54 55  2  0  0  0  0
 35 56  1  0  0  0  0
 43 56  1  0  0  0  0
 56 57  1  0  0  0  0
 57 58  1  0  0  0  0
 58 59  2  0  0  0  0
 59 60  1  0  0  0  0
 60 61  2  0  0  0  0
 57 62  2  0  0  0  0
 61 62  1  0  0  0  0
 40 63  1  0  0  0  0
 63 64  1  0  0  0  0
 38 65  1  0  0  0  0
 64 65  2  0  0  0  0
 65 66  1  0  0  0  0
 39 67  1  0  0  0  0
 66 67  2  0  0  0  0
 63 68  2  0  0  0  0
 67 68  1  0  0  0  0
M  END
$$$$
