8V86
  PyMOL3.1          3D                             0

 41 44  0  0  0  0  0  0  0  0999 V2000
  156.0820  144.5190  132.3520 C   0  0  0  0  0  0  0  0  0  0  0  0
  156.9460  144.9550  133.4890 C   0  0  0  0  0  0  0  0  0  0  0  0
  156.2730  145.0290  134.6330 C   0  0  0  0  0  0  0  0  0  0  0  0
  154.8030  144.7430  134.4220 C   0  0  0  0  0  0  0  0  0  0  0  0
  154.6800  144.8730  132.8820 C   0  0  0  0  0  0  0  0  0  0  0  0
  153.4790  144.0420  132.4230 C   0  0  0  0  0  0  0  0  0  0  0  0
  153.7370  142.6510  132.7560 N   0  0  0  0  0  0  0  0  0  0  0  0
  153.8510  142.4050  134.1120 C   0  0  0  0  0  0  0  0  0  0  0  0
  154.3720  143.3900  134.9610 C   0  0  0  0  0  0  0  0  0  0  0  0
  154.5070  143.1020  136.3120 C   0  0  0  0  0  0  0  0  0  0  0  0
  154.1320  141.8670  136.8140 C   0  0  0  0  0  0  0  0  0  0  0  0
  153.6180  140.8920  135.9780 C   0  0  0  0  0  0  0  0  0  0  0  0
  153.4780  141.1650  134.6290 C   0  0  0  0  0  0  0  0  0  0  0  0
  154.3240  141.5360  138.5360 S   0  0  0  0  0  0  0  0  0  0  0  0
  155.1460  142.5730  139.0820 O   0  0  0  0  0  0  0  0  0  0  0  0
  154.7550  140.1780  138.6630 O   0  0  0  0  0  0  0  0  0  0  0  0
  152.8890  141.6480  139.2330 N   0  0  0  0  0  0  0  0  0  0  0  0
  153.2160  144.2000  130.9410 C   0  0  0  0  0  0  0  0  0  0  0  0
  152.1510  144.9620  130.4820 C   0  0  0  0  0  0  0  0  0  0  0  0
  151.9370  145.1490  129.1280 C   0  0  0  0  0  0  0  0  0  0  0  0
  152.8000  144.5630  128.2270 C   0  0  0  0  0  0  0  0  0  0  0  0
  153.8650  143.7990  128.6500 C   0  0  0  0  0  0  0  0  0  0  0  0
  154.0660  143.6220  130.0080 C   0  0  0  0  0  0  0  0  0  0  0  0
  152.5280  144.8320  126.3680 Br  0  0  0  0  0  0  0  0  0  0  0  0
  157.8970  145.1670  133.3940 H   0  0  0  0  0  0  0  0  0  0  0  0
  156.6710  145.2380  135.5040 H   0  0  0  0  0  0  0  0  0  0  0  0
  154.2610  145.4360  134.8500 H   0  0  0  0  0  0  0  0  0  0  0  0
  154.5090  145.8130  132.6750 H   0  0  0  0  0  0  0  0  0  0  0  0
  152.6750  144.3590  132.8850 H   0  0  0  0  0  0  0  0  0  0  0  0
  153.8110  142.0170  132.1460 H   0  0  0  0  0  0  0  0  0  0  0  0
  154.8780  143.7760  136.9170 H   0  0  0  0  0  0  0  0  0  0  0  0
  153.3580  140.0150  136.3270 H   0  0  0  0  0  0  0  0  0  0  0  0
  153.1150  140.4750  134.0380 H   0  0  0  0  0  0  0  0  0  0  0  0
  151.5140  145.3750  131.0990 H   0  0  0  0  0  0  0  0  0  0  0  0
  151.1950  145.7070  128.8240 H   0  0  0  0  0  0  0  0  0  0  0  0
  154.4700  143.3730  128.0090 H   0  0  0  0  0  0  0  0  0  0  0  0
  154.8240  143.0770  130.3030 H   0  0  0  0  0  0  0  0  0  0  0  0
  156.2090  143.5640  132.1720 H   0  0  0  0  0  0  0  0  0  0  0  0
  156.3040  145.0240  131.5440 H   0  0  0  0  0  0  0  0  0  0  0  0
  152.2780  141.8540  138.6280 H   0  0  0  0  0  0  0  0  0  0  0  0
  152.7150  140.9100  139.6870 H   0  0  0  0  0  0  0  0  0  0  0  0
  1  2  1  0  0  0  0
  2  3  2  0  0  0  0
  3  4  1  0  0  0  0
  1  5  1  0  0  0  0
  4  5  1  0  0  0  0
  5  6  1  0  0  0  0
  6  7  1  0  0  0  0
  7  8  1  0  0  0  0
  4  9  1  0  0  0  0
  8  9  1  0  0  0  0
  9 10  2  0  0  0  0
 10 11  1  0  0  0  0
 11 12  2  0  0  0  0
  8 13  2  0  0  0  0
 12 13  1  0  0  0  0
 11 14  1  0  0  0  0
 14 15  2  0  0  0  0
 14 16  2  0  0  0  0
 14 17  1  0  0  0  0
  6 18  1  0  0  0  0
 18 19  1  0  0  0  0
 19 20  2  0  0  0  0
 20 21  1  0  0  0  0
 21 22  2  0  0  0  0
 18 23  2  0  0  0  0
 22 23  1  0  0  0  0
 21 24  1  0  0  0  0
  2 25  1  0  0  0  0
  3 26  1  0  0  0  0
  4 27  1  0  0  0  0
  5 28  1  0  0  0  0
  6 29  1  0  0  0  0
  7 30  1  0  0  0  0
 10 31  1  0  0  0  0
 12 32  1  0  0  0  0
 13 33  1  0  0  0  0
 19 34  1  0  0  0  0
 20 35  1  0  0  0  0
 22 36  1  0  0  0  0
 23 37  1  0  0  0  0
  1 38  1  0  0  0  0
  1 39  1  0  0  0  0
 17 40  1  0  0  0  0
 17 41  1  0  0  0  0
M  END
$$$$
