8V86
  PyMOL3.1          3D                             0

 41 44  0  0  0  0  0  0  0  0999 V2000
  137.5810  157.1760  132.3490 C   0  0  0  0  0  0  0  0  0  0  0  0
  137.4320  158.1320  133.4860 C   0  0  0  0  0  0  0  0  0  0  0  0
  137.1540  157.5150  134.6300 C   0  0  0  0  0  0  0  0  0  0  0  0
  136.9730  156.0280  134.4180 C   0  0  0  0  0  0  0  0  0  0  0  0
  136.8110  155.9510  132.8780 C   0  0  0  0  0  0  0  0  0  0  0  0
  137.2310  154.5520  132.4190 C   0  0  0  0  0  0  0  0  0  0  0  0
  138.6340  154.3680  132.7520 N   0  0  0  0  0  0  0  0  0  0  0  0
  138.9030  154.4010  134.1080 C   0  0  0  0  0  0  0  0  0  0  0  0
  138.1260  155.2010  134.9570 C   0  0  0  0  0  0  0  0  0  0  0  0
  138.4420  155.2400  136.3080 C   0  0  0  0  0  0  0  0  0  0  0  0
  139.5010  154.5020  136.8110 C   0  0  0  0  0  0  0  0  0  0  0  0
  140.2700  153.7120  135.9750 C   0  0  0  0  0  0  0  0  0  0  0  0
  139.9670  153.6630  134.6260 C   0  0  0  0  0  0  0  0  0  0  0  0
  139.8750  154.5830  138.5330 S   0  0  0  0  0  0  0  0  0  0  0  0
  139.1420  155.6840  139.0780 O   0  0  0  0  0  0  0  0  0  0  0  0
  141.2990  154.5730  138.6600 O   0  0  0  0  0  0  0  0  0  0  0  0
  139.3250  153.2520  139.2290 N   0  0  0  0  0  0  0  0  0  0  0  0
  136.9990  154.3520  130.9370 C   0  0  0  0  0  0  0  0  0  0  0  0
  135.9460  153.5740  130.4780 C   0  0  0  0  0  0  0  0  0  0  0  0
  135.7030  153.4280  129.1240 C   0  0  0  0  0  0  0  0  0  0  0  0
  136.5260  154.0680  128.2230 C   0  0  0  0  0  0  0  0  0  0  0  0
  137.5810  154.8460  128.6460 C   0  0  0  0  0  0  0  0  0  0  0  0
  137.8110  154.9820  130.0040 C   0  0  0  0  0  0  0  0  0  0  0  0
  136.1860  153.8930  126.3640 Br  0  0  0  0  0  0  0  0  0  0  0  0
  137.5240  159.1020  133.3910 H   0  0  0  0  0  0  0  0  0  0  0  0
  137.0780  157.9570  135.5010 H   0  0  0  0  0  0  0  0  0  0  0  0
  136.1470  155.7270  134.8460 H   0  0  0  0  0  0  0  0  0  0  0  0
  135.8640  156.0790  132.6710 H   0  0  0  0  0  0  0  0  0  0  0  0
  136.6820  153.8860  132.8810 H   0  0  0  0  0  0  0  0  0  0  0  0
  139.2590  154.2440  132.1420 H   0  0  0  0  0  0  0  0  0  0  0  0
  137.9150  155.8000  136.9130 H   0  0  0  0  0  0  0  0  0  0  0  0
  141.0240  153.1940  136.3240 H   0  0  0  0  0  0  0  0  0  0  0  0
  140.5120  153.1050  134.0350 H   0  0  0  0  0  0  0  0  0  0  0  0
  135.3570  153.0950  131.0950 H   0  0  0  0  0  0  0  0  0  0  0  0
  134.9430  152.8940  128.8200 H   0  0  0  0  0  0  0  0  0  0  0  0
  138.1730  155.2900  128.0050 H   0  0  0  0  0  0  0  0  0  0  0  0
  138.5640  155.5350  130.2990 H   0  0  0  0  0  0  0  0  0  0  0  0
  138.5280  157.0020  132.1680 H   0  0  0  0  0  0  0  0  0  0  0  0
  137.1680  157.5430  131.5410 H   0  0  0  0  0  0  0  0  0  0  0  0
  138.9420  152.7350  138.6240 H   0  0  0  0  0  0  0  0  0  0  0  0
  139.9740  152.8590  139.6840 H   0  0  0  0  0  0  0  0  0  0  0  0
  1  2  1  0  0  0  0
  2  3  2  0  0  0  0
  3  4  1  0  0  0  0
  1  5  1  0  0  0  0
  4  5  1  0  0  0  0
  5  6  1  0  0  0  0
  6  7  1  0  0  0  0
  7  8  1  0  0  0  0
  4  9  1  0  0  0  0
  8  9  1  0  0  0  0
  9 10  2  0  0  0  0
 10 11  1  0  0  0  0
 11 12  2  0  0  0  0
  8 13  2  0  0  0  0
 12 13  1  0  0  0  0
 11 14  1  0  0  0  0
 14 15  2  0  0  0  0
 14 16  2  0  0  0  0
 14 17  1  0  0  0  0
  6 18  1  0  0  0  0
 18 19  1  0  0  0  0
 19 20  2  0  0  0  0
 20 21  1  0  0  0  0
 21 22  2  0  0  0  0
 18 23  2  0  0  0  0
 22 23  1  0  0  0  0
 21 24  1  0  0  0  0
  2 25  1  0  0  0  0
  3 26  1  0  0  0  0
  4 27  1  0  0  0  0
  5 28  1  0  0  0  0
  6 29  1  0  0  0  0
  7 30  1  0  0  0  0
 10 31  1  0  0  0  0
 12 32  1  0  0  0  0
 13 33  1  0  0  0  0
 19 34  1  0  0  0  0
 20 35  1  0  0  0  0
 22 36  1  0  0  0  0
 23 37  1  0  0  0  0
  1 38  1  0  0  0  0
  1 39  1  0  0  0  0
 17 40  1  0  0  0  0
 17 41  1  0  0  0  0
M  END
$$$$
