8V86
  PyMOL3.1          3D                             0

 41 44  0  0  0  0  0  0  0  0999 V2000
  127.3380  122.3730  132.3530 C   0  0  0  0  0  0  0  0  0  0  0  0
  126.8970  121.5130  133.4890 C   0  0  0  0  0  0  0  0  0  0  0  0
  127.4850  121.8490  134.6330 C   0  0  0  0  0  0  0  0  0  0  0  0
  128.5050  122.9450  134.4210 C   0  0  0  0  0  0  0  0  0  0  0  0
  128.6820  122.9120  132.8810 C   0  0  0  0  0  0  0  0  0  0  0  0
  129.1640  124.2900  132.4230 C   0  0  0  0  0  0  0  0  0  0  0  0
  128.1380  125.2640  132.7560 N   0  0  0  0  0  0  0  0  0  0  0  0
  127.9010  125.3950  134.1120 C   0  0  0  0  0  0  0  0  0  0  0  0
  128.0590  124.2920  134.9610 C   0  0  0  0  0  0  0  0  0  0  0  0
  127.7800  124.4460  136.3120 C   0  0  0  0  0  0  0  0  0  0  0  0
  127.3570  125.6660  136.8140 C   0  0  0  0  0  0  0  0  0  0  0  0
  127.2000  126.7560  135.9780 C   0  0  0  0  0  0  0  0  0  0  0  0
  127.4740  126.6180  134.6290 C   0  0  0  0  0  0  0  0  0  0  0  0
  127.0080  125.8200  138.5360 S   0  0  0  0  0  0  0  0  0  0  0  0
  126.9530  124.4980  139.0820 O   0  0  0  0  0  0  0  0  0  0  0  0
  125.8610  126.6660  138.6630 O   0  0  0  0  0  0  0  0  0  0  0  0
  128.2350  126.5740  139.2330 N   0  0  0  0  0  0  0  0  0  0  0  0
  129.4700  124.3160  130.9410 C   0  0  0  0  0  0  0  0  0  0  0  0
  130.7790  124.3260  130.4810 C   0  0  0  0  0  0  0  0  0  0  0  0
  131.0620  124.3010  129.1270 C   0  0  0  0  0  0  0  0  0  0  0  0
  130.0190  124.2670  128.2260 C   0  0  0  0  0  0  0  0  0  0  0  0
  128.7090  124.2590  128.6500 C   0  0  0  0  0  0  0  0  0  0  0  0
  128.4430  124.2840  130.0080 C   0  0  0  0  0  0  0  0  0  0  0  0
  130.3980  124.2090  126.3670 Br  0  0  0  0  0  0  0  0  0  0  0  0
  126.2520  120.7820  133.3940 H   0  0  0  0  0  0  0  0  0  0  0  0
  127.2860  121.4460  135.5040 H   0  0  0  0  0  0  0  0  0  0  0  0
  129.3510  122.7030  134.8490 H   0  0  0  0  0  0  0  0  0  0  0  0
  129.3720  122.2510  132.6740 H   0  0  0  0  0  0  0  0  0  0  0  0
  130.0010  124.5060  132.8840 H   0  0  0  0  0  0  0  0  0  0  0  0
  127.7050  125.7330  132.1460 H   0  0  0  0  0  0  0  0  0  0  0  0
  127.8770  123.6830  136.9170 H   0  0  0  0  0  0  0  0  0  0  0  0
  126.8950  127.6190  136.3270 H   0  0  0  0  0  0  0  0  0  0  0  0
  127.3610  127.3900  134.0380 H   0  0  0  0  0  0  0  0  0  0  0  0
  131.5380  124.3670  131.0980 H   0  0  0  0  0  0  0  0  0  0  0  0
  131.9910  124.2860  128.8230 H   0  0  0  0  0  0  0  0  0  0  0  0
  127.9690  124.2480  128.0090 H   0  0  0  0  0  0  0  0  0  0  0  0
  127.5080  124.2790  130.3030 H   0  0  0  0  0  0  0  0  0  0  0  0
  126.6750  123.0720  132.1720 H   0  0  0  0  0  0  0  0  0  0  0  0
  127.4570  121.8350  131.5440 H   0  0  0  0  0  0  0  0  0  0  0  0
  128.8490  126.7660  138.6280 H   0  0  0  0  0  0  0  0  0  0  0  0
  127.9410  127.2730  139.6870 H   0  0  0  0  0  0  0  0  0  0  0  0
  1  2  1  0  0  0  0
  2  3  2  0  0  0  0
  3  4  1  0  0  0  0
  1  5  1  0  0  0  0
  4  5  1  0  0  0  0
  5  6  1  0  0  0  0
  6  7  1  0  0  0  0
  7  8  1  0  0  0  0
  4  9  1  0  0  0  0
  8  9  1  0  0  0  0
  9 10  2  0  0  0  0
 10 11  1  0  0  0  0
 11 12  2  0  0  0  0
  8 13  2  0  0  0  0
 12 13  1  0  0  0  0
 11 14  1  0  0  0  0
 14 15  2  0  0  0  0
 14 16  2  0  0  0  0
 14 17  1  0  0  0  0
  6 18  1  0  0  0  0
 18 19  1  0  0  0  0
 19 20  2  0  0  0  0
 20 21  1  0  0  0  0
 21 22  2  0  0  0  0
 18 23  2  0  0  0  0
 22 23  1  0  0  0  0
 21 24  1  0  0  0  0
  2 25  1  0  0  0  0
  3 26  1  0  0  0  0
  4 27  1  0  0  0  0
  5 28  1  0  0  0  0
  6 29  1  0  0  0  0
  7 30  1  0  0  0  0
 10 31  1  0  0  0  0
 12 32  1  0  0  0  0
 13 33  1  0  0  0  0
 19 34  1  0  0  0  0
 20 35  1  0  0  0  0
 22 36  1  0  0  0  0
 23 37  1  0  0  0  0
  1 38  1  0  0  0  0
  1 39  1  0  0  0  0
 17 40  1  0  0  0  0
 17 41  1  0  0  0  0
M  END
$$$$
