8V86
  PyMOL3.1          3D                             0

 41 44  0  0  0  0  0  0  0  0999 V2000
  149.7570  123.0000  132.3530 C   0  0  0  0  0  0  0  0  0  0  0  0
  150.4390  122.3140  133.4900 C   0  0  0  0  0  0  0  0  0  0  0  0
  150.3010  122.9770  134.6340 C   0  0  0  0  0  0  0  0  0  0  0  0
  149.5730  124.2860  134.4220 C   0  0  0  0  0  0  0  0  0  0  0  0
  149.6590  124.4440  132.8820 C   0  0  0  0  0  0  0  0  0  0  0  0
  148.4970  125.3280  132.4230 C   0  0  0  0  0  0  0  0  0  0  0  0
  147.2540  124.6530  132.7560 N   0  0  0  0  0  0  0  0  0  0  0  0
  147.0560  124.4680  134.1120 C   0  0  0  0  0  0  0  0  0  0  0  0
  148.1540  124.2770  134.9610 C   0  0  0  0  0  0  0  0  0  0  0  0
  147.9210  124.0600  136.3120 C   0  0  0  0  0  0  0  0  0  0  0  0
  146.6310  124.0340  136.8140 C   0  0  0  0  0  0  0  0  0  0  0  0
  145.5450  124.2220  135.9780 C   0  0  0  0  0  0  0  0  0  0  0  0
  145.7610  124.4400  134.6290 C   0  0  0  0  0  0  0  0  0  0  0  0
  146.3760  123.7500  138.5360 S   0  0  0  0  0  0  0  0  0  0  0  0
  147.6160  123.2890  139.0820 O   0  0  0  0  0  0  0  0  0  0  0  0
  145.2170  122.9200  138.6630 O   0  0  0  0  0  0  0  0  0  0  0  0
  146.0380  125.1500  139.2330 N   0  0  0  0  0  0  0  0  0  0  0  0
  148.5670  125.6270  130.9410 C   0  0  0  0  0  0  0  0  0  0  0  0
  148.9620  126.8750  130.4820 C   0  0  0  0  0  0  0  0  0  0  0  0
  149.0740  127.1360  129.1280 C   0  0  0  0  0  0  0  0  0  0  0  0
  148.7840  126.1350  128.2270 C   0  0  0  0  0  0  0  0  0  0  0  0
  148.3870  124.8850  128.6500 C   0  0  0  0  0  0  0  0  0  0  0  0
  148.2810  124.6400  130.0080 C   0  0  0  0  0  0  0  0  0  0  0  0
  148.9560  126.4770  126.3680 Br  0  0  0  0  0  0  0  0  0  0  0  0
  150.9340  121.4750  133.3950 H   0  0  0  0  0  0  0  0  0  0  0  0
  150.6220  122.6630  135.5050 H   0  0  0  0  0  0  0  0  0  0  0  0
  150.0650  125.0160  134.8500 H   0  0  0  0  0  0  0  0  0  0  0  0
  150.5010  124.8960  132.6750 H   0  0  0  0  0  0  0  0  0  0  0  0
  148.5500  126.1910  132.8850 H   0  0  0  0  0  0  0  0  0  0  0  0
  146.6750  124.3860  132.1460 H   0  0  0  0  0  0  0  0  0  0  0  0
  148.6770  123.9160  136.9170 H   0  0  0  0  0  0  0  0  0  0  0  0
  144.6300  124.1980  136.3270 H   0  0  0  0  0  0  0  0  0  0  0  0
  144.9930  124.5710  134.0380 H   0  0  0  0  0  0  0  0  0  0  0  0
  149.1580  127.6090  131.0990 H   0  0  0  0  0  0  0  0  0  0  0  0
  149.3750  128.0150  128.8240 H   0  0  0  0  0  0  0  0  0  0  0  0
  148.1690  124.1780  128.0090 H   0  0  0  0  0  0  0  0  0  0  0  0
  147.9970  123.7500  130.3030 H   0  0  0  0  0  0  0  0  0  0  0  0
  148.8880  122.5840  132.1720 H   0  0  0  0  0  0  0  0  0  0  0  0
  150.3060  122.9460  131.5450 H   0  0  0  0  0  0  0  0  0  0  0  0
  146.0450  125.7940  138.6280 H   0  0  0  0  0  0  0  0  0  0  0  0
  145.2830  125.0860  139.6870 H   0  0  0  0  0  0  0  0  0  0  0  0
  1  2  1  0  0  0  0
  2  3  2  0  0  0  0
  3  4  1  0  0  0  0
  1  5  1  0  0  0  0
  4  5  1  0  0  0  0
  5  6  1  0  0  0  0
  6  7  1  0  0  0  0
  7  8  1  0  0  0  0
  4  9  1  0  0  0  0
  8  9  1  0  0  0  0
  9 10  2  0  0  0  0
 10 11  1  0  0  0  0
 11 12  2  0  0  0  0
  8 13  2  0  0  0  0
 12 13  1  0  0  0  0
 11 14  1  0  0  0  0
 14 15  2  0  0  0  0
 14 16  2  0  0  0  0
 14 17  1  0  0  0  0
  6 18  1  0  0  0  0
 18 19  1  0  0  0  0
 19 20  2  0  0  0  0
 20 21  1  0  0  0  0
 21 22  2  0  0  0  0
 18 23  2  0  0  0  0
 22 23  1  0  0  0  0
 21 24  1  0  0  0  0
  2 25  1  0  0  0  0
  3 26  1  0  0  0  0
  4 27  1  0  0  0  0
  5 28  1  0  0  0  0
  6 29  1  0  0  0  0
  7 30  1  0  0  0  0
 10 31  1  0  0  0  0
 12 32  1  0  0  0  0
 13 33  1  0  0  0  0
 19 34  1  0  0  0  0
 20 35  1  0  0  0  0
 22 36  1  0  0  0  0
 23 37  1  0  0  0  0
  1 38  1  0  0  0  0
  1 39  1  0  0  0  0
 17 40  1  0  0  0  0
 17 41  1  0  0  0  0
M  END
$$$$
