9EPZ
  PyMOL3.1          3D                             0

 36 40  0  0  0  0  0  0  0  0999 V2000
   36.8520   -4.1090    2.8930 Cl  0  0  0  0  0  0  0  0  0  0  0  0
   37.6720   -3.6720    1.4230 C   0  0  0  0  0  0  0  0  0  0  0  0
   38.7610   -2.8410    1.5670 C   0  0  0  0  0  0  0  0  0  0  0  0
   39.5560   -2.5360    0.4780 C   0  0  0  0  0  0  0  0  0  0  0  0
   40.7740   -1.6750    0.6660 C   0  0  0  0  0  0  0  0  0  0  0  0
   40.9710   -0.6720   -0.4240 N   0  3  0  0  0  0  0  0  0  0  0  0
   42.3980   -0.5780   -0.8280 C   0  0  0  0  0  0  0  0  0  0  0  0
   43.1960    0.1560    0.2330 C   0  0  0  0  0  0  0  0  0  0  0  0
   43.9930    1.2090   -0.4950 C   0  0  0  0  0  0  0  0  0  0  0  0
   43.9550    2.5670    0.1740 C   0  0  0  0  0  0  0  0  0  0  0  0
   44.5570    3.5580   -0.8080 C   0  0  0  0  0  0  0  0  0  0  0  0
   45.9330    3.1440   -1.1500 N   0  0  0  0  0  0  0  0  0  0  0  0
   46.9440    4.2780   -1.7580 S   0  0  0  0  0  0  0  0  0  0  0  0
   46.2050    4.8890   -3.2290 C   0  0  0  0  0  0  0  0  0  0  0  0
   46.5220    4.2840   -4.4400 C   0  0  0  0  0  0  0  0  0  0  0  0
   45.9390    4.7850   -5.5900 C   0  0  0  0  0  0  0  0  0  0  0  0
   46.1640    4.2810   -7.2350 S   0  0  0  0  0  0  0  0  0  0  0  0
   45.0840    5.5560   -7.7450 C   0  0  0  0  0  0  0  0  0  0  0  0
   44.9340    5.8630   -9.1900 C   0  0  0  0  0  0  0  0  0  0  0  0
   44.5860    6.2900   -6.8010 N   0  0  0  0  0  0  0  0  0  0  0  0
   45.0600    5.8720   -5.5530 C   0  0  0  0  0  0  0  0  0  0  0  0
   44.7550    6.4600   -4.3240 C   0  0  0  0  0  0  0  0  0  0  0  0
   45.3280    5.9690   -3.1600 C   0  0  0  0  0  0  0  0  0  0  0  0
   48.1500    3.5990   -2.1220 O   0  0  0  0  0  0  0  0  0  0  0  0
   46.9830    5.3460   -0.8060 O   0  0  0  0  0  0  0  0  0  0  0  0
   45.9980    1.7840   -1.7270 C   0  0  0  0  0  0  0  0  0  0  0  0
   45.4390    0.7950   -0.7200 C   0  0  0  0  0  0  0  0  0  0  0  0
   39.2240   -3.0770   -0.7580 C   0  0  0  0  0  0  0  0  0  0  0  0
   38.1270   -3.9070   -0.9140 C   0  0  0  0  0  0  0  0  0  0  0  0
   37.3190   -4.2190    0.1720 C   0  0  0  0  0  0  0  0  0  0  0  0
   36.0970   -5.0270   -0.0890 C   0  0  0  0  0  0  0  0  0  0  0  0
   36.1920   -6.2920   -0.6750 C   0  0  0  0  0  0  0  0  0  0  0  0
   35.0520   -7.0310   -0.9500 C   0  0  0  0  0  0  0  0  0  0  0  0
   33.8000   -6.5240   -0.6450 C   0  0  0  0  0  0  0  0  0  0  0  0
   33.6890   -5.2750   -0.0650 C   0  0  0  0  0  0  0  0  0  0  0  0
   34.8250   -4.5290    0.2120 C   0  0  0  0  0  0  0  0  0  0  0  0
  1  2  1  0  0  0  0
  2  3  2  0  0  0  0
  3  4  1  0  0  0  0
  4  5  1  0  0  0  0
  5  6  1  0  0  0  0
  6  7  1  0  0  0  0
  7  8  1  0  0  0  0
  8  9  1  0  0  0  0
  9 10  1  0  0  0  0
 10 11  1  0  0  0  0
 11 12  1  0  0  0  0
 12 13  1  0  0  0  0
 13 14  1  0  0  0  0
 14 15  1  0  0  0  0
 15 16  2  0  0  0  0
 16 17  1  0  0  0  0
 17 18  1  0  0  0  0
 18 19  1  0  0  0  0
 18 20  2  0  0  0  0
 16 21  1  0  0  0  0
 20 21  1  0  0  0  0
 21 22  2  0  0  0  0
 14 23  2  0  0  0  0
 22 23  1  0  0  0  0
 13 24  2  0  0  0  0
 13 25  2  0  0  0  0
 12 26  1  0  0  0  0
  9 27  1  0  0  0  0
 26 27  1  0  0  0  0
  4 28  2  0  0  0  0
 28 29  1  0  0  0  0
  2 30  1  0  0  0  0
 29 30  2  0  0  0  0
 30 31  1  0  0  0  0
 31 32  1  0  0  0  0
 32 33  2  0  0  0  0
 33 34  1  0  0  0  0
 34 35  2  0  0  0  0
 31 36  2  0  0  0  0
 35 36  1  0  0  0  0
M  END
$$$$
