9EPZ
  PyMOL3.1          3D                             0

 36 40  0  0  0  0  0  0  0  0999 V2000
    4.7390  -35.1130   -4.2870 Cl  0  0  0  0  0  0  0  0  0  0  0  0
    4.5010  -36.1220   -2.8940 C   0  0  0  0  0  0  0  0  0  0  0  0
    3.8290  -37.3140   -3.0900 C   0  0  0  0  0  0  0  0  0  0  0  0
    3.7170  -38.2350   -2.0600 C   0  0  0  0  0  0  0  0  0  0  0  0
    3.1980  -39.6190   -2.3380 C   0  0  0  0  0  0  0  0  0  0  0  0
    1.8660  -39.8610   -1.7080 N   0  3  0  0  0  0  0  0  0  0  0  0
    1.6720  -41.2610   -1.2570 C   0  0  0  0  0  0  0  0  0  0  0  0
    0.7380  -41.9980   -2.1920 C   0  0  0  0  0  0  0  0  0  0  0  0
   -0.2820  -42.7430   -1.3680 C   0  0  0  0  0  0  0  0  0  0  0  0
   -1.6650  -42.6960   -2.0000 C   0  0  0  0  0  0  0  0  0  0  0  0
   -2.6550  -43.3420   -1.0480 C   0  0  0  0  0  0  0  0  0  0  0  0
   -2.2390  -44.7370   -0.8120 N   0  0  0  0  0  0  0  0  0  0  0  0
   -3.3950  -45.7670   -0.2860 S   0  0  0  0  0  0  0  0  0  0  0  0
   -3.9770  -45.1340    1.2580 C   0  0  0  0  0  0  0  0  0  0  0  0
   -3.3410  -45.5180    2.4360 C   0  0  0  0  0  0  0  0  0  0  0  0
   -3.8140  -44.9970    3.6300 C   0  0  0  0  0  0  0  0  0  0  0  0
   -3.2830  -45.3260    5.2480 S   0  0  0  0  0  0  0  0  0  0  0  0
   -4.5450  -44.2720    5.8490 C   0  0  0  0  0  0  0  0  0  0  0  0
   -4.7890  -44.1640    7.3080 C   0  0  0  0  0  0  0  0  0  0  0  0
   -5.2940  -43.7170    4.9510 N   0  0  0  0  0  0  0  0  0  0  0  0
   -4.8980  -44.1140    3.6690 C   0  0  0  0  0  0  0  0  0  0  0  0
   -5.5150  -43.7420    2.4800 C   0  0  0  0  0  0  0  0  0  0  0  0
   -5.0580  -44.2520    1.2740 C   0  0  0  0  0  0  0  0  0  0  0  0
   -2.7560  -47.0240   -0.0380 O   0  0  0  0  0  0  0  0  0  0  0  0
   -4.4630  -45.6890   -1.2310 O   0  0  0  0  0  0  0  0  0  0  0  0
   -0.8960  -44.8250   -0.2040 C   0  0  0  0  0  0  0  0  0  0  0  0
    0.1250  -44.1940   -1.1480 C   0  0  0  0  0  0  0  0  0  0  0  0
    4.2730  -37.9180   -0.8270 C   0  0  0  0  0  0  0  0  0  0  0  0
    4.9440  -36.7210   -0.6220 C   0  0  0  0  0  0  0  0  0  0  0  0
    5.0720  -35.7910   -1.6520 C   0  0  0  0  0  0  0  0  0  0  0  0
    5.8130  -34.5270   -1.3720 C   0  0  0  0  0  0  0  0  0  0  0  0
    5.3630  -33.2980   -1.8670 C   0  0  0  0  0  0  0  0  0  0  0  0
    6.0580  -32.1310   -1.6010 C   0  0  0  0  0  0  0  0  0  0  0  0
    7.2090  -32.1640   -0.8420 C   0  0  0  0  0  0  0  0  0  0  0  0
    7.6700  -33.3680   -0.3450 C   0  0  0  0  0  0  0  0  0  0  0  0
    6.9810  -34.5410   -0.6060 C   0  0  0  0  0  0  0  0  0  0  0  0
  1  2  1  0  0  0  0
  2  3  2  0  0  0  0
  3  4  1  0  0  0  0
  4  5  1  0  0  0  0
  5  6  1  0  0  0  0
  6  7  1  0  0  0  0
  7  8  1  0  0  0  0
  8  9  1  0  0  0  0
  9 10  1  0  0  0  0
 10 11  1  0  0  0  0
 11 12  1  0  0  0  0
 12 13  1  0  0  0  0
 13 14  1  0  0  0  0
 14 15  1  0  0  0  0
 15 16  2  0  0  0  0
 16 17  1  0  0  0  0
 17 18  1  0  0  0  0
 18 19  1  0  0  0  0
 18 20  2  0  0  0  0
 16 21  1  0  0  0  0
 20 21  1  0  0  0  0
 21 22  2  0  0  0  0
 14 23  2  0  0  0  0
 22 23  1  0  0  0  0
 13 24  2  0  0  0  0
 13 25  2  0  0  0  0
 12 26  1  0  0  0  0
  9 27  1  0  0  0  0
 26 27  1  0  0  0  0
  4 28  2  0  0  0  0
 28 29  1  0  0  0  0
  2 30  1  0  0  0  0
 29 30  2  0  0  0  0
 30 31  1  0  0  0  0
 31 32  1  0  0  0  0
 32 33  2  0  0  0  0
 33 34  1  0  0  0  0
 34 35  2  0  0  0  0
 31 36  2  0  0  0  0
 35 36  1  0  0  0  0
M  END
$$$$
