7M40
  PyMOL3.1          3D                             0

 23 24  0  0  0  0  0  0  0  0999 V2000
   26.3890   31.1680   39.5150 N   0  0  0  0  0  0  0  0  0  0  0  0
   26.3720   26.0520   39.6340 C   0  0  0  0  0  0  0  0  0  0  0  0
   26.8900   26.5150   38.3800 O   0  0  0  0  0  0  0  0  0  0  0  0
   26.7340   27.8410   38.0560 C   0  0  0  0  0  0  0  0  0  0  0  0
   26.8250   33.3390   40.1120 N   0  0  0  0  0  0  0  0  0  0  0  0
   27.2080   27.0570   35.8740 O   0  0  0  0  0  0  0  0  0  0  0  0
   26.4740   28.8460   38.9530 C   0  0  0  0  0  0  0  0  0  0  0  0
   30.6390   35.9360   41.0780 N   0  0  0  0  0  0  0  0  0  0  0  0
   26.4990   30.2040   38.5440 C   0  0  0  0  0  0  0  0  0  0  0  0
   26.8600   32.8560   37.8660 N   0  0  0  0  0  0  0  0  0  0  0  0
   26.6390   32.4350   39.1270 C   0  0  0  0  0  0  0  0  0  0  0  0
   27.0550   32.4390   35.6000 N   0  0  0  0  0  0  0  0  0  0  0  0
   27.1850   34.7360   39.9260 C   0  0  0  0  0  0  0  0  0  0  0  0
   28.7110   34.8880   39.8450 C   0  0  0  0  0  0  0  0  0  0  0  0
   29.2830   36.1210   40.5350 C   0  0  0  0  0  0  0  0  0  0  0  0
   30.6710   36.2570   42.5120 C   0  0  0  0  0  0  0  0  0  0  0  0
   31.6090   36.7610   40.3550 C   0  0  0  0  0  0  0  0  0  0  0  0
   26.9090   31.9450   36.8990 C   0  0  0  0  0  0  0  0  0  0  0  0
   26.6640   33.8010   35.2140 C   0  0  0  0  0  0  0  0  0  0  0  0
   26.7690   30.5200   37.1840 C   0  0  0  0  0  0  0  0  0  0  0  0
   27.0000   29.4580   36.2600 C   0  0  0  0  0  0  0  0  0  0  0  0
   26.9840   28.1510   36.6790 C   0  0  0  0  0  0  0  0  0  0  0  0
   27.1720   27.2420   34.4540 C   0  0  0  0  0  0  0  0  0  0  0  0
  2  3  1  0  0  0  0
  3  4  1  0  0  0  0
  4  7  2  0  0  0  0
  1  9  2  0  0  0  0
  7  9  1  0  0  0  0
  1 11  1  0  0  0  0
  5 11  1  0  0  0  0
 10 11  2  0  0  0  0
  5 13  1  0  0  0  0
 13 14  1  0  0  0  0
  8 15  1  0  0  0  0
 14 15  1  0  0  0  0
  8 16  1  0  0  0  0
  8 17  1  0  0  0  0
 10 18  1  0  0  0  0
 12 18  1  0  0  0  0
 12 19  1  0  0  0  0
  9 20  1  0  0  0  0
 18 20  2  0  0  0  0
 20 21  1  0  0  0  0
  4 22  1  0  0  0  0
  6 22  1  0  0  0  0
 21 22  2  0  0  0  0
  6 23  1  0  0  0  0
M  END
$$$$
