7M40
  PyMOL3.1          3D                             0

 22 23  0  0  0  0  0  0  0  0999 V2000
    2.2600    3.8870   13.5370 N   0  0  0  0  0  0  0  0  0  0  0  0
    3.1020   -1.2570   13.6090 C   0  0  0  0  0  0  0  0  0  0  0  0
    1.8840   -0.8640   14.2500 O   0  0  0  0  0  0  0  0  0  0  0  0
    1.7510    0.4460   14.6490 C   0  0  0  0  0  0  0  0  0  0  0  0
    1.8100    6.0380   12.8420 N   0  0  0  0  0  0  0  0  0  0  0  0
    0.5600   -0.5140   16.4480 O   0  0  0  0  0  0  0  0  0  0  0  0
    2.2260    1.5280   13.9580 C   0  0  0  0  0  0  0  0  0  0  0  0
   -1.6850    8.4140   10.8730 N   0  0  0  0  0  0  0  0  0  0  0  0
    1.8700    2.8450   14.3470 C   0  0  0  0  0  0  0  0  0  0  0  0
    0.9310    5.4030   14.8760 N   0  0  0  0  0  0  0  0  0  0  0  0
    1.7140    5.0980   13.8120 C   0  0  0  0  0  0  0  0  0  0  0  0
   -0.2430    4.7200   16.7690 N   0  0  0  0  0  0  0  0  0  0  0  0
    1.2450    7.3780   12.9190 C   0  0  0  0  0  0  0  0  0  0  0  0
   -0.2660    7.3730   12.6740 C   0  0  0  0  0  0  0  0  0  0  0  0
   -0.8340    8.6450   12.0550 C   0  0  0  0  0  0  0  0  0  0  0  0
   -0.8810    7.9980    9.7300 C   0  0  0  0  0  0  0  0  0  0  0  0
   -2.4640    9.6240   10.5310 C   0  0  0  0  0  0  0  0  0  0  0  0
    0.5850    4.4090   15.6970 C   0  0  0  0  0  0  0  0  0  0  0  0
    1.0180    3.0340   15.4720 C   0  0  0  0  0  0  0  0  0  0  0  0
    0.5770    1.9010   16.1970 C   0  0  0  0  0  0  0  0  0  0  0  0
    0.9370    0.6380   15.8100 C   0  0  0  0  0  0  0  0  0  0  0  0
    0.4140   -0.4770   17.8700 C   0  0  0  0  0  0  0  0  0  0  0  0
  2  3  1  0  0  0  0
  3  4  1  0  0  0  0
  4  7  2  0  0  0  0
  1  9  2  0  0  0  0
  7  9  1  0  0  0  0
  1 11  1  0  0  0  0
  5 11  1  0  0  0  0
 10 11  2  0  0  0  0
  5 13  1  0  0  0  0
 13 14  1  0  0  0  0
  8 15  1  0  0  0  0
 14 15  1  0  0  0  0
  8 16  1  0  0  0  0
  8 17  1  0  0  0  0
 10 18  1  0  0  0  0
 12 18  1  0  0  0  0
  9 19  1  0  0  0  0
 18 19  2  0  0  0  0
 19 20  1  0  0  0  0
  4 21  1  0  0  0  0
  6 21  1  0  0  0  0
 20 21  2  0  0  0  0
  6 22  1  0  0  0  0
M  END
$$$$
