8Y53
  PyMOL3.1          3D                             0

 49 52  0  0  0  0  0  0  0  0999 V2000
  109.6620   92.0150   69.0820 O   0  0  0  0  0  0  0  0  0  0  0  0
  108.4720   91.8690   69.8000 C   0  0  0  0  0  0  0  0  0  0  0  0
  107.3520   91.6820   68.7290 C   0  0  0  0  0  0  0  0  0  0  0  0
  107.4860   90.3650   67.8510 C   0  0  0  0  0  0  0  0  0  0  0  0
  108.6180   89.8010   67.3510 N   0  0  0  0  0  0  0  0  0  0  0  0
  108.3530   88.7290   66.5890 C   0  0  0  0  0  0  0  0  0  0  0  0
  106.9930   88.5590   66.6790 C   0  0  0  0  0  0  0  0  0  0  0  0
  106.2010   87.3780   66.0310 C   0  0  0  0  0  0  0  0  0  0  0  0
  106.0470   86.2440   67.0400 C   0  0  0  0  0  0  0  0  0  0  0  0
  105.6550   86.5530   68.5070 C   0  0  0  0  0  0  0  0  0  0  0  0
  107.0380   85.9650   68.2060 C   0  0  0  0  0  0  0  0  0  0  0  0
  105.2110   85.0600   66.4630 C   0  0  0  0  0  0  0  0  0  0  0  0
  106.4930   89.5570   67.4130 N   0  0  0  0  0  0  0  0  0  0  0  0
  108.5310   90.5700   70.6630 C   0  0  0  0  0  0  0  0  0  0  0  0
  109.7300   89.8390   70.8070 C   0  0  0  0  0  0  0  0  0  0  0  0
  109.7720   88.6870   71.5690 C   0  0  0  0  0  0  0  0  0  0  0  0
  108.6310   88.2210   72.1910 C   0  0  0  0  0  0  0  0  0  0  0  0
  107.4360   88.9030   72.0430 C   0  0  0  0  0  0  0  0  0  0  0  0
  107.3810   90.0690   71.2930 C   0  0  0  0  0  0  0  0  0  0  0  0
  108.6710   87.0080   72.9520 N   0  0  0  0  0  0  0  0  0  0  0  0
  108.9110   85.9440   72.2800 C   0  0  0  0  0  0  0  0  0  0  0  0
  108.8990   84.9380   73.1620 C   0  0  0  0  0  0  0  0  0  0  0  0
  108.6420   85.4210   74.4610 C   0  0  0  0  0  0  0  0  0  0  0  0
  108.4860   86.7540   74.2960 N   0  0  0  0  0  0  0  0  0  0  0  0
  108.5370   93.1370   70.7080 C   0  0  0  0  0  0  0  0  0  0  0  0
  105.2670   83.9400   67.2350 F   0  0  0  0  0  0  0  0  0  0  0  0
  103.9140   85.4600   66.4060 F   0  0  0  0  0  0  0  0  0  0  0  0
  105.6080   84.7280   65.1990 F   0  0  0  0  0  0  0  0  0  0  0  0
  107.5430   93.1010   71.6400 F   0  0  0  0  0  0  0  0  0  0  0  0
  108.5600   94.2480   69.9240 F   0  0  0  0  0  0  0  0  0  0  0  0
  109.7690   92.7240   71.0820 F   0  0  0  0  0  0  0  0  0  0  0  0
  110.1220   92.7860   69.3860 H   0  0  0  0  0  0  0  0  0  0  0  0
  107.3920   92.5400   68.0680 H   0  0  0  0  0  0  0  0  0  0  0  0
  106.3650   91.7060   69.1850 H   0  0  0  0  0  0  0  0  0  0  0  0
  109.0650   88.0640   66.1040 H   0  0  0  0  0  0  0  0  0  0  0  0
  106.7610   87.0480   65.1590 H   0  0  0  0  0  0  0  0  0  0  0  0
  105.2210   87.7420   65.7190 H   0  0  0  0  0  0  0  0  0  0  0  0
  104.9290   85.8780   68.9460 H   0  0  0  0  0  0  0  0  0  0  0  0
  105.6740   87.5680   68.8800 H   0  0  0  0  0  0  0  0  0  0  0  0
  107.8580   86.6500   68.3950 H   0  0  0  0  0  0  0  0  0  0  0  0
  107.1740   84.9330   68.5140 H   0  0  0  0  0  0  0  0  0  0  0  0
  105.5200   89.6810   67.6300 H   0  0  0  0  0  0  0  0  0  0  0  0
  110.6730   90.1480   70.3630 H   0  0  0  0  0  0  0  0  0  0  0  0
  110.7060   88.1460   71.6720 H   0  0  0  0  0  0  0  0  0  0  0  0
  106.5420   88.5250   72.5280 H   0  0  0  0  0  0  0  0  0  0  0  0
  106.4230   90.5730   71.2170 H   0  0  0  0  0  0  0  0  0  0  0  0
  109.0940   85.8660   71.2090 H   0  0  0  0  0  0  0  0  0  0  0  0
  109.1110   83.9780   72.7560 H   0  0  0  0  0  0  0  0  0  0  0  0
  108.5680   84.8550   75.3880 H   0  0  0  0  0  0  0  0  0  0  0  0
  1  2  1  0  0  0  0
  2  3  1  0  0  0  0
  3  4  1  0  0  0  0
  4  5  2  0  0  0  0
  5  6  1  0  0  0  0
  6  7  2  0  0  0  0
  7  8  1  0  0  0  0
  8  9  1  0  0  0  0
  9 10  1  0  0  0  0
  9 11  1  0  0  0  0
 10 11  1  0  0  0  0
  9 12  1  0  0  0  0
  4 13  1  0  0  0  0
  7 13  1  0  0  0  0
  2 14  1  0  0  0  0
 14 15  2  0  0  0  0
 15 16  1  0  0  0  0
 16 17  2  0  0  0  0
 17 18  1  0  0  0  0
 14 19  1  0  0  0  0
 18 19  2  0  0  0  0
 17 20  1  0  0  0  0
 20 21  1  0  0  0  0
 21 22  2  0  0  0  0
 22 23  1  0  0  0  0
 20 24  1  0  0  0  0
 23 24  2  0  0  0  0
  2 25  1  0  0  0  0
 12 26  1  0  0  0  0
 12 27  1  0  0  0  0
 12 28  1  0  0  0  0
 25 29  1  0  0  0  0
 25 30  1  0  0  0  0
 25 31  1  0  0  0  0
  1 32  1  0  0  0  0
  3 33  1  0  0  0  0
  3 34  1  0  0  0  0
  6 35  1  0  0  0  0
  8 36  1  0  0  0  0
  8 37  1  0  0  0  0
 10 38  1  0  0  0  0
 10 39  1  0  0  0  0
 11 40  1  0  0  0  0
 11 41  1  0  0  0  0
 13 42  1  0  0  0  0
 15 43  1  0  0  0  0
 16 44  1  0  0  0  0
 18 45  1  0  0  0  0
 19 46  1  0  0  0  0
 21 47  1  0  0  0  0
 22 48  1  0  0  0  0
 23 49  1  0  0  0  0
M  END
$$$$
