7XN9
  PyMOL3.1          3D                             0

 94 98  0  0  0  0  0  0  0  0999 V2000
   18.1740   47.7780   56.9040 O   0  0  0  0  0  0  0  0  0  0  0  0
   15.2690   43.2850   61.4920 O   0  0  0  0  0  0  0  0  0  0  0  0
   17.8500   46.1350   52.9200 O   0  0  0  0  0  0  0  0  0  0  0  0
   22.5180   45.5180   52.8080 O   0  0  0  0  0  0  0  0  0  0  0  0
   21.8830   47.0400   54.2970 O   0  0  0  0  0  0  0  0  0  0  0  0
   17.0880   45.9760   57.6860 N   0  0  0  0  0  0  0  0  0  0  0  0
   17.1270   42.5930   60.2120 N   0  0  0  0  0  0  0  0  0  0  0  0
   16.9020   46.8120   55.3620 N   0  0  0  0  0  0  0  0  0  0  0  0
   16.2350   41.1920   61.8560 N   0  0  0  0  0  0  0  0  0  0  0  0
   19.5210   47.5780   53.3090 N   0  0  0  0  0  0  0  0  0  0  0  0
   17.1530   50.7770   51.3540 N   0  0  0  0  0  0  0  0  0  0  0  0
   19.1330   48.3890   47.0760 N   0  0  0  0  0  0  0  0  0  0  0  0
   17.4170   43.7190   59.2770 C   0  0  0  0  0  0  0  0  0  0  0  0
   17.1230   44.9690   59.9520 C   0  0  0  0  0  0  0  0  0  0  0  0
   16.6080   43.5350   58.0510 C   0  0  0  0  0  0  0  0  0  0  0  0
   17.6340   46.0690   59.0730 C   0  0  0  0  0  0  0  0  0  0  0  0
   16.1500   44.8500   57.4600 C   0  0  0  0  0  0  0  0  0  0  0  0
   17.9020   41.3930   60.2170 C   0  0  0  0  0  0  0  0  0  0  0  0
   17.4370   46.9130   56.6720 C   0  0  0  0  0  0  0  0  0  0  0  0
   17.3110   47.7980   54.4130 C   0  0  0  0  0  0  0  0  0  0  0  0
   16.0500   48.2710   53.7840 C   0  0  0  0  0  0  0  0  0  0  0  0
   16.0830   42.4920   61.2230 C   0  0  0  0  0  0  0  0  0  0  0  0
   17.3520   40.5180   61.2340 C   0  0  0  0  0  0  0  0  0  0  0  0
   16.3230   49.2110   52.6410 C   0  0  0  0  0  0  0  0  0  0  0  0
   19.1000   40.9830   59.3700 C   0  0  0  0  0  0  0  0  0  0  0  0
   18.2040   47.0800   53.4680 C   0  0  0  0  0  0  0  0  0  0  0  0
   15.3070   49.0110   54.8710 C   0  0  0  0  0  0  0  0  0  0  0  0
   17.9760   39.1410   61.4760 C   0  0  0  0  0  0  0  0  0  0  0  0
   15.5970   49.2410   51.5250 C   0  0  0  0  0  0  0  0  0  0  0  0
   20.4470   46.8940   52.4560 C   0  0  0  0  0  0  0  0  0  0  0  0
   17.2940   50.1660   52.5550 C   0  0  0  0  0  0  0  0  0  0  0  0
   19.7350   39.6290   59.5880 C   0  0  0  0  0  0  0  0  0  0  0  0
   20.8240   47.8150   51.3260 C   0  0  0  0  0  0  0  0  0  0  0  0
   16.1050   50.2120   50.7180 C   0  0  0  0  0  0  0  0  0  0  0  0
   19.1710   38.7000   60.6500 C   0  0  0  0  0  0  0  0  0  0  0  0
   20.1550   47.2120   50.1090 C   0  0  0  0  0  0  0  0  0  0  0  0
   14.3750   48.3880   51.0930 C   0  0  0  0  0  0  0  0  0  0  0  0
   21.6680   46.5010   53.2710 C   0  0  0  0  0  0  0  0  0  0  0  0
   19.2440   48.2270   49.4720 C   0  0  0  0  0  0  0  0  0  0  0  0
   15.4640   50.4830   49.3330 C   0  0  0  0  0  0  0  0  0  0  0  0
   23.6140   45.2040   53.6130 C   0  0  0  0  0  0  0  0  0  0  0  0
   13.7510   48.6330   49.7720 C   0  0  0  0  0  0  0  0  0  0  0  0
   14.2900   49.6810   48.9010 C   0  0  0  0  0  0  0  0  0  0  0  0
   18.7030   47.5970   48.2020 C   0  0  0  0  0  0  0  0  0  0  0  0
   24.3980   44.0750   53.0060 C   0  0  0  0  0  0  0  0  0  0  0  0
   23.1750   44.7780   54.9890 C   0  0  0  0  0  0  0  0  0  0  0  0
   24.4640   46.4420   53.7670 C   0  0  0  0  0  0  0  0  0  0  0  0
   16.3520   46.1860   55.1490 H   0  0  0  0  0  0  0  0  0  0  0  0
   15.7430   40.8780   62.4870 H   0  0  0  0  0  0  0  0  0  0  0  0
   19.7740   48.2720   53.7490 H   0  0  0  0  0  0  0  0  0  0  0  0
   17.6430   51.4160   51.0520 H   0  0  0  0  0  0  0  0  0  0  0  0
   19.2270   49.2370   47.3280 H   0  0  0  0  0  0  0  0  0  0  0  0
   18.5240   48.3380   46.4280 H   0  0  0  0  0  0  0  0  0  0  0  0
   18.3570   43.7040   59.0380 H   0  0  0  0  0  0  0  0  0  0  0  0
   17.5750   44.9950   60.8100 H   0  0  0  0  0  0  0  0  0  0  0  0
   16.1650   45.0620   60.0730 H   0  0  0  0  0  0  0  0  0  0  0  0
   15.8280   43.0010   58.2680 H   0  0  0  0  0  0  0  0  0  0  0  0
   17.1420   43.0650   57.3910 H   0  0  0  0  0  0  0  0  0  0  0  0
   18.6020   46.0160   59.0340 H   0  0  0  0  0  0  0  0  0  0  0  0
   17.3760   46.9220   59.4550 H   0  0  0  0  0  0  0  0  0  0  0  0
   15.2940   45.0810   57.8520 H   0  0  0  0  0  0  0  0  0  0  0  0
   16.0360   44.7340   56.5040 H   0  0  0  0  0  0  0  0  0  0  0  0
   17.7780   48.5270   54.8500 H   0  0  0  0  0  0  0  0  0  0  0  0
   15.5250   47.5140   53.4770 H   0  0  0  0  0  0  0  0  0  0  0  0
   19.4340   41.5590   58.7210 H   0  0  0  0  0  0  0  0  0  0  0  0
   14.8920   49.8040   54.4970 H   0  0  0  0  0  0  0  0  0  0  0  0
   15.9280   49.2700   55.5690 H   0  0  0  0  0  0  0  0  0  0  0  0
   14.6230   48.4340   55.2460 H   0  0  0  0  0  0  0  0  0  0  0  0
   17.6270   38.5790   62.1300 H   0  0  0  0  0  0  0  0  0  0  0  0
   20.0280   46.0960   52.0960 H   0  0  0  0  0  0  0  0  0  0  0  0
   17.9380   50.3570   53.1980 H   0  0  0  0  0  0  0  0  0  0  0  0
   20.4670   39.3660   59.0770 H   0  0  0  0  0  0  0  0  0  0  0  0
   20.4850   48.7090   51.4910 H   0  0  0  0  0  0  0  0  0  0  0  0
   21.7870   47.8330   51.2100 H   0  0  0  0  0  0  0  0  0  0  0  0
   19.5560   37.8660   60.7940 H   0  0  0  0  0  0  0  0  0  0  0  0
   20.8330   46.9410   49.4700 H   0  0  0  0  0  0  0  0  0  0  0  0
   19.6370   46.4370   50.3770 H   0  0  0  0  0  0  0  0  0  0  0  0
   14.0370   47.7310   51.6570 H   0  0  0  0  0  0  0  0  0  0  0  0
   19.7420   49.0320   49.2580 H   0  0  0  0  0  0  0  0  0  0  0  0
   18.5140   48.4400   50.0740 H   0  0  0  0  0  0  0  0  0  0  0  0
   15.8100   51.1440   48.7780 H   0  0  0  0  0  0  0  0  0  0  0  0
   13.0160   48.1310   49.5010 H   0  0  0  0  0  0  0  0  0  0  0  0
   13.9050   49.8350   48.0680 H   0  0  0  0  0  0  0  0  0  0  0  0
   17.7340   47.5770   48.2350 H   0  0  0  0  0  0  0  0  0  0  0  0
   19.0450   46.6940   48.1150 H   0  0  0  0  0  0  0  0  0  0  0  0
   23.9980   43.8220   52.1590 H   0  0  0  0  0  0  0  0  0  0  0  0
   24.3900   43.3150   53.6070 H   0  0  0  0  0  0  0  0  0  0  0  0
   25.3140   44.3600   52.8580 H   0  0  0  0  0  0  0  0  0  0  0  0
   22.7590   45.5290   55.4410 H   0  0  0  0  0  0  0  0  0  0  0  0
   22.5380   44.0510   54.9140 H   0  0  0  0  0  0  0  0  0  0  0  0
   23.9460   44.4820   55.4970 H   0  0  0  0  0  0  0  0  0  0  0  0
   25.3880   46.1830   53.9090 H   0  0  0  0  0  0  0  0  0  0  0  0
   24.1510   46.9560   54.5280 H   0  0  0  0  0  0  0  0  0  0  0  0
   24.3990   46.9810   52.9630 H   0  0  0  0  0  0  0  0  0  0  0  0
  7 13  1  0  0  0  0
 13 14  1  0  0  0  0
 13 15  1  0  0  0  0
  6 16  1  0  0  0  0
 14 16  1  0  0  0  0
  6 17  1  0  0  0  0
 15 17  1  0  0  0  0
  7 18  1  0  0  0  0
  1 19  2  0  0  0  0
  6 19  1  0  0  0  0
  8 19  1  0  0  0  0
  8 20  1  0  0  0  0
 20 21  1  0  0  0  0
  2 22  2  0  0  0  0
  7 22  1  0  0  0  0
  9 22  1  0  0  0  0
  9 23  1  0  0  0  0
 18 23  2  0  0  0  0
 21 24  1  0  0  0  0
 18 25  1  0  0  0  0
  3 26  2  0  0  0  0
 10 26  1  0  0  0  0
 20 26  1  0  0  0  0
 21 27  1  0  0  0  0
 23 28  1  0  0  0  0
 24 29  1  0  0  0  0
 10 30  1  0  0  0  0
 11 31  1  0  0  0  0
 24 31  2  0  0  0  0
 25 32  2  0  0  0  0
 30 33  1  0  0  0  0
 11 34  1  0  0  0  0
 29 34  2  0  0  0  0
 28 35  2  0  0  0  0
 32 35  1  0  0  0  0
 33 36  1  0  0  0  0
 29 37  1  0  0  0  0
  4 38  1  0  0  0  0
  5 38  2  0  0  0  0
 30 38  1  0  0  0  0
 36 39  1  0  0  0  0
 34 40  1  0  0  0  0
  4 41  1  0  0  0  0
 37 42  2  0  0  0  0
 40 43  2  0  0  0  0
 42 43  1  0  0  0  0
 12 44  1  0  0  0  0
 39 44  1  0  0  0  0
 41 45  1  0  0  0  0
 41 46  1  0  0  0  0
 41 47  1  0  0  0  0
  8 48  1  0  0  0  0
  9 49  1  0  0  0  0
 10 50  1  0  0  0  0
 11 51  1  0  0  0  0
 12 52  1  0  0  0  0
 12 53  1  0  0  0  0
 13 54  1  0  0  0  0
 14 55  1  0  0  0  0
 14 56  1  0  0  0  0
 15 57  1  0  0  0  0
 15 58  1  0  0  0  0
 16 59  1  0  0  0  0
 16 60  1  0  0  0  0
 17 61  1  0  0  0  0
 17 62  1  0  0  0  0
 20 63  1  0  0  0  0
 21 64  1  0  0  0  0
 25 65  1  0  0  0  0
 27 66  1  0  0  0  0
 27 67  1  0  0  0  0
 27 68  1  0  0  0  0
 28 69  1  0  0  0  0
 30 70  1  0  0  0  0
 31 71  1  0  0  0  0
 32 72  1  0  0  0  0
 33 73  1  0  0  0  0
 33 74  1  0  0  0  0
 35 75  1  0  0  0  0
 36 76  1  0  0  0  0
 36 77  1  0  0  0  0
 37 78  1  0  0  0  0
 39 79  1  0  0  0  0
 39 80  1  0  0  0  0
 40 81  1  0  0  0  0
 42 82  1  0  0  0  0
 43 83  1  0  0  0  0
 44 84  1  0  0  0  0
 44 85  1  0  0  0  0
 45 86  1  0  0  0  0
 45 87  1  0  0  0  0
 45 88  1  0  0  0  0
 46 89  1  0  0  0  0
 46 90  1  0  0  0  0
 46 91  1  0  0  0  0
 47 92  1  0  0  0  0
 47 93  1  0  0  0  0
 47 94  1  0  0  0  0
M  END
$$$$
