8CGP
  PyMOL3.1          3D                             0

 22 24  0  0  0  0  0  0  0  0999 V2000
    4.3660   -8.2240   61.3440 Cl  0  0  0  0  0  0  0  0  0  0  0  0
    9.9230  -11.3930   60.3700 O   0  0  0  0  0  0  0  0  0  0  0  0
    9.2950  -11.6390   61.6750 S   0  0  0  0  0  0  0  0  0  0  0  0
   10.3040  -11.1260   62.9780 N   0  0  0  0  0  0  0  0  0  0  0  0
   10.1740   -9.7720   63.5030 C   0  0  0  0  0  0  0  0  0  0  0  0
   10.3470   -8.7180   62.6310 C   0  0  0  0  0  0  0  0  0  0  0  0
   10.2100   -7.4230   63.0830 C   0  0  0  0  0  0  0  0  0  0  0  0
   10.4180   -6.3050   62.0880 C   0  0  0  0  0  0  0  0  0  0  0  0
   11.0530   -5.1600   62.3230 N   0  0  0  0  0  0  0  0  0  0  0  0
   11.0280   -4.4420   61.1820 N   0  0  0  0  0  0  0  0  0  0  0  0
   10.3870   -5.1500   60.2510 N   0  0  0  0  0  0  0  0  0  0  0  0
   10.0070   -6.3220   60.8150 N   0  0  0  0  0  0  0  0  0  0  0  0
    9.9010   -7.1590   64.4070 C   0  0  0  0  0  0  0  0  0  0  0  0
    9.7230   -8.2120   65.2900 C   0  0  0  0  0  0  0  0  0  0  0  0
    9.8600   -9.5160   64.8350 C   0  0  0  0  0  0  0  0  0  0  0  0
    7.6290  -10.8870   61.7860 C   0  0  0  0  0  0  0  0  0  0  0  0
    6.5480  -11.5360   62.4660 C   0  0  0  0  0  0  0  0  0  0  0  0
    5.2830  -10.7010   62.4060 C   0  0  0  0  0  0  0  0  0  0  0  0
    5.5520   -9.5000   61.6800 C   0  0  0  0  0  0  0  0  0  0  0  0
    7.0960   -9.4660   61.1960 S   0  0  0  0  0  0  0  0  0  0  0  0
    9.1640  -13.1080   61.6460 O   0  0  0  0  0  0  0  0  0  0  0  0
    3.5960  -11.2270   63.2040 Br  0  0  0  0  0  0  0  0  0  0  0  0
  2  3  2  0  0  0  0
  3  4  1  0  0  0  0
  4  5  1  0  0  0  0
  5  6  1  0  0  0  0
  6  7  2  0  0  0  0
  7  8  1  0  0  0  0
  8  9  1  0  0  0  0
  9 10  1  0  0  0  0
 10 11  2  0  0  0  0
  8 12  2  0  0  0  0
 11 12  1  0  0  0  0
  7 13  1  0  0  0  0
 13 14  2  0  0  0  0
  5 15  2  0  0  0  0
 14 15  1  0  0  0  0
  3 16  1  0  0  0  0
 16 17  2  0  0  0  0
 17 18  1  0  0  0  0
  1 19  1  0  0  0  0
 18 19  2  0  0  0  0
 16 20  1  0  0  0  0
 19 20  1  0  0  0  0
  3 21  2  0  0  0  0
 18 22  1  0  0  0  0
M  END
$$$$
