7EZF
  PyMOL3.1          3D                             0

 20 21  0  0  0  0  0  0  0  0999 V2000
    6.2310   -7.7770   50.3380 Cl  0  0  0  0  0  0  0  0  0  0  0  0
    5.8510  -10.2900   53.5000 C   0  0  0  0  0  0  0  0  0  0  0  0
    5.6300   -6.2590   53.0270 N   0  0  0  0  0  0  0  0  0  0  0  0
    7.1870   -6.4600   59.5820 O   0  0  0  0  0  0  0  0  0  0  0  0
    6.0290   -9.8010   52.2090 C   0  0  0  0  0  0  0  0  0  0  0  0
    6.4250   -8.4240   58.9160 O   0  0  0  0  0  0  0  0  0  0  0  0
    5.9740   -8.4480   51.9740 C   0  0  0  0  0  0  0  0  0  0  0  0
    5.5170   -3.5080   53.6690 O   0  0  0  0  0  0  0  0  0  0  0  0
    5.7250   -7.5790   53.0160 C   0  0  0  0  0  0  0  0  0  0  0  0
    5.0030   -4.0190   55.7730 O   0  0  0  0  0  0  0  0  0  0  0  0
    5.5630   -8.0490   54.2980 C   0  0  0  0  0  0  0  0  0  0  0  0
    5.6240   -9.4180   54.5470 C   0  0  0  0  0  0  0  0  0  0  0  0
    5.4230   -5.8320   54.2560 C   0  0  0  0  0  0  0  0  0  0  0  0
    5.3540   -6.9300   55.1170 C   0  0  0  0  0  0  0  0  0  0  0  0
    5.8850  -11.7890   53.8010 C   0  0  0  0  0  0  0  0  0  0  0  0
    5.9420  -12.6700   52.5510 C   0  0  0  0  0  0  0  0  0  0  0  0
    5.1090   -6.9790   56.6190 C   0  0  0  0  0  0  0  0  0  0  0  0
    6.3350   -6.4890   57.3790 C   0  0  0  0  0  0  0  0  0  0  0  0
    6.6420   -7.1840   58.7060 C   0  0  0  0  0  0  0  0  0  0  0  0
    5.2920   -4.3590   54.5880 C   0  0  0  0  0  0  0  0  0  0  0  0
  2  5  1  0  0  0  0
  1  7  1  0  0  0  0
  5  7  2  0  0  0  0
  3  9  1  0  0  0  0
  7  9  1  0  0  0  0
  9 11  2  0  0  0  0
  2 12  2  0  0  0  0
 11 12  1  0  0  0  0
  3 13  1  0  0  0  0
 11 14  1  0  0  0  0
 13 14  2  0  0  0  0
  2 15  1  0  0  0  0
 15 16  1  0  0  0  0
 14 17  1  0  0  0  0
 17 18  1  0  0  0  0
  4 19  1  0  0  0  0
  6 19  2  0  0  0  0
 18 19  1  0  0  0  0
  8 20  2  0  0  0  0
 10 20  1  0  0  0  0
 13 20  1  0  0  0  0
M  END
$$$$
