7EZF
  PyMOL3.1          3D                             0

 20 21  0  0  0  0  0  0  0  0999 V2000
   16.6660    6.9590   -2.4150 Cl  0  0  0  0  0  0  0  0  0  0  0  0
   15.8500    8.5400   -6.0380 C   0  0  0  0  0  0  0  0  0  0  0  0
   19.2950    7.7040   -4.0230 N   0  0  0  0  0  0  0  0  0  0  0  0
   22.6520   11.2790   -5.5260 O   0  0  0  0  0  0  0  0  0  0  0  0
   15.6960    7.9700   -4.7840 C   0  0  0  0  0  0  0  0  0  0  0  0
   23.3210   10.3310   -7.3880 O   0  0  0  0  0  0  0  0  0  0  0  0
   16.8160    7.6630   -4.0460 C   0  0  0  0  0  0  0  0  0  0  0  0
   22.6660    7.5750   -5.2770 O   0  0  0  0  0  0  0  0  0  0  0  0
   18.0930    7.9090   -4.5520 C   0  0  0  0  0  0  0  0  0  0  0  0
   22.1230    8.1120   -3.2570 O   0  0  0  0  0  0  0  0  0  0  0  0
   18.2710    8.4700   -5.7940 C   0  0  0  0  0  0  0  0  0  0  0  0
   17.1290    8.7930   -6.5450 C   0  0  0  0  0  0  0  0  0  0  0  0
   20.2700    8.0860   -4.8340 C   0  0  0  0  0  0  0  0  0  0  0  0
   19.6700    8.5940   -5.9950 C   0  0  0  0  0  0  0  0  0  0  0  0
   14.6070    8.8890   -6.8640 C   0  0  0  0  0  0  0  0  0  0  0  0
   14.0760   10.3080   -6.6480 C   0  0  0  0  0  0  0  0  0  0  0  0
   20.3560    9.1510   -7.2420 C   0  0  0  0  0  0  0  0  0  0  0  0
   20.8710   10.5850   -7.0790 C   0  0  0  0  0  0  0  0  0  0  0  0
   22.3620   10.7310   -6.6430 C   0  0  0  0  0  0  0  0  0  0  0  0
   21.7630    7.9340   -4.4600 C   0  0  0  0  0  0  0  0  0  0  0  0
  2  5  1  0  0  0  0
  1  7  1  0  0  0  0
  5  7  2  0  0  0  0
  3  9  1  0  0  0  0
  7  9  1  0  0  0  0
  9 11  2  0  0  0  0
  2 12  2  0  0  0  0
 11 12  1  0  0  0  0
  3 13  1  0  0  0  0
 11 14  1  0  0  0  0
 13 14  2  0  0  0  0
  2 15  1  0  0  0  0
 15 16  1  0  0  0  0
 14 17  1  0  0  0  0
 17 18  1  0  0  0  0
  4 19  1  0  0  0  0
  6 19  2  0  0  0  0
 18 19  1  0  0  0  0
  8 20  2  0  0  0  0
 10 20  1  0  0  0  0
 13 20  1  0  0  0  0
M  END
$$$$
