6XCG
  PyMOL3.1          3D                             0

 99111  0  0  0  0  0  0  0  0999 V2000
   14.2430   14.6070   14.7670 N   0  0  0  0  0  0  0  0  0  0  0  0
   15.5550   14.7680   15.0400 C   0  0  0  0  0  0  0  0  0  0  0  0
   16.2360   15.5170   14.3490 O   0  0  0  0  0  0  0  0  0  0  0  0
   13.3680   13.6900   15.5120 C   0  0  0  0  0  0  0  0  0  0  0  0
   12.2100   21.4320   15.7320 N   0  0  0  0  0  0  0  0  0  0  0  0
   10.7150   21.0410   14.0550 O   0  0  0  0  0  0  0  0  0  0  0  0
   12.7260   12.6060   14.7320 C   0  0  0  0  0  0  0  0  0  0  0  0
   11.0010   25.0380   17.3530 N   0  0  0  0  0  0  0  0  0  0  0  0
   15.6080   13.7500   19.8220 O   0  0  0  0  0  0  0  0  0  0  0  0
   13.7790   12.2800   15.7320 C   0  0  0  0  0  0  0  0  0  0  0  0
   12.6370   23.3260   16.9590 N   0  0  0  0  0  0  0  0  0  0  0  0
   17.9850   11.8930   21.8290 O   0  0  0  0  0  0  0  0  0  0  0  0
   13.6350   15.3380   13.6450 C   0  0  0  0  0  0  0  0  0  0  0  0
   17.9890   12.3580   19.6050 N   0  0  0  0  0  0  0  0  0  0  0  0
   13.1320   16.7160   14.0130 C   0  0  0  0  0  0  0  0  0  0  0  0
   12.3470   17.4160   13.1070 C   0  0  0  0  0  0  0  0  0  0  0  0
   11.9310   18.7060   13.3720 C   0  0  0  0  0  0  0  0  0  0  0  0
   12.2740   19.3330   14.5610 C   0  0  0  0  0  0  0  0  0  0  0  0
   11.6430   20.6660   14.7810 C   0  0  0  0  0  0  0  0  0  0  0  0
   11.7220   22.6280   16.2870 C   0  0  0  0  0  0  0  0  0  0  0  0
   10.4290   23.0980   16.0910 C   0  0  0  0  0  0  0  0  0  0  0  0
   10.1180   24.3080   16.6650 C   0  0  0  0  0  0  0  0  0  0  0  0
   12.2170   24.5030   17.4460 C   0  0  0  0  0  0  0  0  0  0  0  0
   13.0700   18.6430   15.4680 C   0  0  0  0  0  0  0  0  0  0  0  0
   13.4720   17.3400   15.2020 C   0  0  0  0  0  0  0  0  0  0  0  0
   16.1570   14.0840   16.2460 C   0  0  0  0  0  0  0  0  0  0  0  0
   15.5430   14.1360   17.4980 C   0  0  0  0  0  0  0  0  0  0  0  0
   16.1770   13.5700   18.5950 C   0  0  0  0  0  0  0  0  0  0  0  0
   16.0120   12.9090   20.8850 C   0  0  0  0  0  0  0  0  0  0  0  0
   17.4070   12.3360   20.8250 C   0  0  0  0  0  0  0  0  0  0  0  0
   17.4100   12.9300   18.4660 C   0  0  0  0  0  0  0  0  0  0  0  0
   18.0070   12.8500   17.2170 C   0  0  0  0  0  0  0  0  0  0  0  0
   17.3840   13.4270   16.1180 C   0  0  0  0  0  0  0  0  0  0  0  0
  -21.2270    4.6480   -2.2930 N   0  0  0  0  0  0  0  0  0  0  0  0
  -22.0140    5.7130   -2.0660 C   0  0  0  0  0  0  0  0  0  0  0  0
  -22.9200    6.0270   -2.8600 O   0  0  0  0  0  0  0  0  0  0  0  0
  -20.0530    4.3100   -1.4910 C   0  0  0  0  0  0  0  0  0  0  0  0
  -26.7120    0.0820   -1.6070 N   0  0  0  0  0  0  0  0  0  0  0  0
  -25.4630   -1.3940   -2.7490 O   0  0  0  0  0  0  0  0  0  0  0  0
  -18.7820    4.1800   -2.2510 C   0  0  0  0  0  0  0  0  0  0  0  0
  -29.8390   -2.1300   -0.0900 N   0  0  0  0  0  0  0  0  0  0  0  0
  -21.3400    6.2700    2.7280 O   0  0  0  0  0  0  0  0  0  0  0  0
  -18.9690    5.3090   -1.2910 C   0  0  0  0  0  0  0  0  0  0  0  0
  -28.7510   -0.0530   -0.5870 N   0  0  0  0  0  0  0  0  0  0  0  0
  -21.0820    9.2840    4.7030 O   0  0  0  0  0  0  0  0  0  0  0  0
  -21.5490    3.7600   -3.4100 C   0  0  0  0  0  0  0  0  0  0  0  0
  -21.2970    9.0190    2.4860 N   0  0  0  0  0  0  0  0  0  0  0  0
  -22.5910    2.7200   -3.0750 C   0  0  0  0  0  0  0  0  0  0  0  0
  -22.9080    1.7440   -4.0190 C   0  0  0  0  0  0  0  0  0  0  0  0
  -23.9270    0.8260   -3.7910 C   0  0  0  0  0  0  0  0  0  0  0  0
  -24.6440    0.8370   -2.5880 C   0  0  0  0  0  0  0  0  0  0  0  0
  -25.6210   -0.2730   -2.2920 C   0  0  0  0  0  0  0  0  0  0  0  0
  -27.6560   -0.7390   -0.9650 C   0  0  0  0  0  0  0  0  0  0  0  0
  -27.5820   -2.1210   -0.8720 C   0  0  0  0  0  0  0  0  0  0  0  0
  -28.7160   -2.7700   -0.4240 C   0  0  0  0  0  0  0  0  0  0  0  0
  -29.7850   -0.8040   -0.1870 C   0  0  0  0  0  0  0  0  0  0  0  0
  -24.3370    1.8300   -1.6400 C   0  0  0  0  0  0  0  0  0  0  0  0
  -23.3140    2.7450   -1.8780 C   0  0  0  0  0  0  0  0  0  0  0  0
  -21.7480    6.5670   -0.8670 C   0  0  0  0  0  0  0  0  0  0  0  0
  -21.5100    6.0210    0.3930 C   0  0  0  0  0  0  0  0  0  0  0  0
  -21.4040    6.8500    1.4830 C   0  0  0  0  0  0  0  0  0  0  0  0
  -21.1010    7.0190    3.8780 C   0  0  0  0  0  0  0  0  0  0  0  0
  -21.1560    8.5400    3.7330 C   0  0  0  0  0  0  0  0  0  0  0  0
  -21.4400    8.2220    1.3430 C   0  0  0  0  0  0  0  0  0  0  0  0
  -21.6290    8.7780    0.0950 C   0  0  0  0  0  0  0  0  0  0  0  0
  -21.8120    7.9500   -0.9980 C   0  0  0  0  0  0  0  0  0  0  0  0
    4.9380  -21.7270  -18.9110 N   0  0  0  0  0  0  0  0  0  0  0  0
    4.3820  -22.9450  -18.7120 C   0  0  0  0  0  0  0  0  0  0  0  0
    4.5810  -23.8710  -19.4800 O   0  0  0  0  0  0  0  0  0  0  0  0
    4.6560  -20.5320  -18.0810 C   0  0  0  0  0  0  0  0  0  0  0  0
   11.5730  -24.2040  -18.2410 N   0  0  0  0  0  0  0  0  0  0  0  0
   12.2690  -22.7010  -19.7780 O   0  0  0  0  0  0  0  0  0  0  0  0
    4.0960  -19.2660  -18.6350 C   0  0  0  0  0  0  0  0  0  0  0  0
   15.1710  -25.6610  -16.8110 N   0  0  0  0  0  0  0  0  0  0  0  0
    3.6270  -22.9660  -13.9110 O   0  0  0  0  0  0  0  0  0  0  0  0
    3.2400  -20.1620  -17.8070 C   0  0  0  0  0  0  0  0  0  0  0  0
   12.7920  -25.7960  -17.0970 N   0  0  0  0  0  0  0  0  0  0  0  0
    0.8270  -24.1480  -12.0290 O   0  0  0  0  0  0  0  0  0  0  0  0
    5.8280  -21.5640  -20.0720 C   0  0  0  0  0  0  0  0  0  0  0  0
    1.1680  -24.2020  -14.2230 N   0  0  0  0  0  0  0  0  0  0  0  0
    7.2690  -21.9950  -19.8210 C   0  0  0  0  0  0  0  0  0  0  0  0
    8.2490  -21.7930  -20.7960 C   0  0  0  0  0  0  0  0  0  0  0  0
    9.5620  -22.1860  -20.5770 C   0  0  0  0  0  0  0  0  0  0  0  0
    9.9330  -22.8060  -19.3780 C   0  0  0  0  0  0  0  0  0  0  0  0
   11.3630  -23.2010  -19.1290 C   0  0  0  0  0  0  0  0  0  0  0  0
   12.7940  -24.5710  -17.6430 C   0  0  0  0  0  0  0  0  0  0  0  0
   13.9650  -23.8220  -17.7580 C   0  0  0  0  0  0  0  0  0  0  0  0
   15.1310  -24.4270  -17.3280 C   0  0  0  0  0  0  0  0  0  0  0  0
   13.9890  -26.2670  -16.7160 C   0  0  0  0  0  0  0  0  0  0  0  0
    8.9610  -23.0000  -18.4160 C   0  0  0  0  0  0  0  0  0  0  0  0
    7.6530  -22.5820  -18.6280 C   0  0  0  0  0  0  0  0  0  0  0  0
    3.4930  -23.1710  -17.5330 C   0  0  0  0  0  0  0  0  0  0  0  0
    3.9140  -22.8510  -16.2450 C   0  0  0  0  0  0  0  0  0  0  0  0
    3.1310  -23.2010  -15.1660 C   0  0  0  0  0  0  0  0  0  0  0  0
    2.7310  -22.9630  -12.8140 C   0  0  0  0  0  0  0  0  0  0  0  0
    1.4940  -23.8310  -12.9700 C   0  0  0  0  0  0  0  0  0  0  0  0
    1.9250  -23.8740  -15.3470 C   0  0  0  0  0  0  0  0  0  0  0  0
    1.4910  -24.1760  -16.6250 C   0  0  0  0  0  0  0  0  0  0  0  0
    2.2700  -23.8140  -17.7110 C   0  0  0  0  0  0  0  0  0  0  0  0
  1  2  1  0  0  0  0
  2  3  2  0  0  0  0
  1  4  1  0  0  0  0
  4  7  1  0  0  0  0
  4 10  1  0  0  0  0
  7 10  1  0  0  0  0
  1 13  1  0  0  0  0
 13 15  1  0  0  0  0
 15 16  1  0  0  0  0
 16 17  2  0  0  0  0
 17 18  1  0  0  0  0
  5 19  1  0  0  0  0
  6 19  2  0  0  0  0
 18 19  1  0  0  0  0
  5 20  1  0  0  0  0
 11 20  1  0  0  0  0
 20 21  2  0  0  0  0
  8 22  2  0  0  0  0
 21 22  1  0  0  0  0
  8 23  1  0  0  0  0
 11 23  2  0  0  0  0
 18 24  2  0  0  0  0
 15 25  2  0  0  0  0
 24 25  1  0  0  0  0
  2 26  1  0  0  0  0
 26 27  1  0  0  0  0
  9 28  1  0  0  0  0
 27 28  2  0  0  0  0
  9 29  1  0  0  0  0
 12 30  2  0  0  0  0
 14 30  1  0  0  0  0
 29 30  1  0  0  0  0
 14 31  1  0  0  0  0
 28 31  1  0  0  0  0
 31 32  2  0  0  0  0
 26 33  2  0  0  0  0
 32 33  1  0  0  0  0
 34 35  1  0  0  0  0
 35 36  2  0  0  0  0
 34 37  1  0  0  0  0
 37 40  1  0  0  0  0
 37 43  1  0  0  0  0
 40 43  1  0  0  0  0
 34 46  1  0  0  0  0
 46 48  1  0  0  0  0
 48 49  1  0  0  0  0
 49 50  2  0  0  0  0
 50 51  1  0  0  0  0
 38 52  1  0  0  0  0
 39 52  2  0  0  0  0
 51 52  1  0  0  0  0
 38 53  1  0  0  0  0
 44 53  1  0  0  0  0
 53 54  2  0  0  0  0
 41 55  2  0  0  0  0
 54 55  1  0  0  0  0
 41 56  1  0  0  0  0
 44 56  2  0  0  0  0
 51 57  2  0  0  0  0
 48 58  2  0  0  0  0
 57 58  1  0  0  0  0
 35 59  1  0  0  0  0
 59 60  1  0  0  0  0
 42 61  1  0  0  0  0
 60 61  2  0  0  0  0
 42 62  1  0  0  0  0
 45 63  2  0  0  0  0
 47 63  1  0  0  0  0
 62 63  1  0  0  0  0
 47 64  1  0  0  0  0
 61 64  1  0  0  0  0
 64 65  2  0  0  0  0
 59 66  2  0  0  0  0
 65 66  1  0  0  0  0
 67 68  1  0  0  0  0
 68 69  2  0  0  0  0
 67 70  1  0  0  0  0
 70 73  1  0  0  0  0
 70 76  1  0  0  0  0
 73 76  1  0  0  0  0
 67 79  1  0  0  0  0
 79 81  1  0  0  0  0
 81 82  1  0  0  0  0
 82 83  2  0  0  0  0
 83 84  1  0  0  0  0
 71 85  1  0  0  0  0
 72 85  2  0  0  0  0
 84 85  1  0  0  0  0
 71 86  1  0  0  0  0
 77 86  1  0  0  0  0
 86 87  2  0  0  0  0
 74 88  2  0  0  0  0
 87 88  1  0  0  0  0
 74 89  1  0  0  0  0
 77 89  2  0  0  0  0
 84 90  2  0  0  0  0
 81 91  2  0  0  0  0
 90 91  1  0  0  0  0
 68 92  1  0  0  0  0
 92 93  1  0  0  0  0
 75 94  1  0  0  0  0
 93 94  2  0  0  0  0
 75 95  1  0  0  0  0
 78 96  2  0  0  0  0
 80 96  1  0  0  0  0
 95 96  1  0  0  0  0
 80 97  1  0  0  0  0
 94 97  1  0  0  0  0
 97 98  2  0  0  0  0
 92 99  2  0  0  0  0
 98 99  1  0  0  0  0
M  END
$$$$
