6XCG
  PyMOL3.1          3D                             0

 33 37  0  0  0  0  0  0  0  0999 V2000
    4.9380  -21.7270  -18.9110 N   0  0  0  0  0  0  0  0  0  0  0  0
    4.3820  -22.9450  -18.7120 C   0  0  0  0  0  0  0  0  0  0  0  0
    4.5810  -23.8710  -19.4800 O   0  0  0  0  0  0  0  0  0  0  0  0
    4.6560  -20.5320  -18.0810 C   0  0  0  0  0  0  0  0  0  0  0  0
   11.5730  -24.2040  -18.2410 N   0  0  0  0  0  0  0  0  0  0  0  0
   12.2690  -22.7010  -19.7780 O   0  0  0  0  0  0  0  0  0  0  0  0
    4.0960  -19.2660  -18.6350 C   0  0  0  0  0  0  0  0  0  0  0  0
   15.1710  -25.6610  -16.8110 N   0  0  0  0  0  0  0  0  0  0  0  0
    3.6270  -22.9660  -13.9110 O   0  0  0  0  0  0  0  0  0  0  0  0
    3.2400  -20.1620  -17.8070 C   0  0  0  0  0  0  0  0  0  0  0  0
   12.7920  -25.7960  -17.0970 N   0  0  0  0  0  0  0  0  0  0  0  0
    0.8270  -24.1480  -12.0290 O   0  0  0  0  0  0  0  0  0  0  0  0
    5.8280  -21.5640  -20.0720 C   0  0  0  0  0  0  0  0  0  0  0  0
    1.1680  -24.2020  -14.2230 N   0  0  0  0  0  0  0  0  0  0  0  0
    7.2690  -21.9950  -19.8210 C   0  0  0  0  0  0  0  0  0  0  0  0
    8.2490  -21.7930  -20.7960 C   0  0  0  0  0  0  0  0  0  0  0  0
    9.5620  -22.1860  -20.5770 C   0  0  0  0  0  0  0  0  0  0  0  0
    9.9330  -22.8060  -19.3780 C   0  0  0  0  0  0  0  0  0  0  0  0
   11.3630  -23.2010  -19.1290 C   0  0  0  0  0  0  0  0  0  0  0  0
   12.7940  -24.5710  -17.6430 C   0  0  0  0  0  0  0  0  0  0  0  0
   13.9650  -23.8220  -17.7580 C   0  0  0  0  0  0  0  0  0  0  0  0
   15.1310  -24.4270  -17.3280 C   0  0  0  0  0  0  0  0  0  0  0  0
   13.9890  -26.2670  -16.7160 C   0  0  0  0  0  0  0  0  0  0  0  0
    8.9610  -23.0000  -18.4160 C   0  0  0  0  0  0  0  0  0  0  0  0
    7.6530  -22.5820  -18.6280 C   0  0  0  0  0  0  0  0  0  0  0  0
    3.4930  -23.1710  -17.5330 C   0  0  0  0  0  0  0  0  0  0  0  0
    3.9140  -22.8510  -16.2450 C   0  0  0  0  0  0  0  0  0  0  0  0
    3.1310  -23.2010  -15.1660 C   0  0  0  0  0  0  0  0  0  0  0  0
    2.7310  -22.9630  -12.8140 C   0  0  0  0  0  0  0  0  0  0  0  0
    1.4940  -23.8310  -12.9700 C   0  0  0  0  0  0  0  0  0  0  0  0
    1.9250  -23.8740  -15.3470 C   0  0  0  0  0  0  0  0  0  0  0  0
    1.4910  -24.1760  -16.6250 C   0  0  0  0  0  0  0  0  0  0  0  0
    2.2700  -23.8140  -17.7110 C   0  0  0  0  0  0  0  0  0  0  0  0
  1  2  1  0  0  0  0
  2  3  2  0  0  0  0
  1  4  1  0  0  0  0
  4  7  1  0  0  0  0
  4 10  1  0  0  0  0
  7 10  1  0  0  0  0
  1 13  1  0  0  0  0
 13 15  1  0  0  0  0
 15 16  1  0  0  0  0
 16 17  2  0  0  0  0
 17 18  1  0  0  0  0
  5 19  1  0  0  0  0
  6 19  2  0  0  0  0
 18 19  1  0  0  0  0
  5 20  1  0  0  0  0
 11 20  1  0  0  0  0
 20 21  2  0  0  0  0
  8 22  2  0  0  0  0
 21 22  1  0  0  0  0
  8 23  1  0  0  0  0
 11 23  2  0  0  0  0
 18 24  2  0  0  0  0
 15 25  2  0  0  0  0
 24 25  1  0  0  0  0
  2 26  1  0  0  0  0
 26 27  1  0  0  0  0
  9 28  1  0  0  0  0
 27 28  2  0  0  0  0
  9 29  1  0  0  0  0
 12 30  2  0  0  0  0
 14 30  1  0  0  0  0
 29 30  1  0  0  0  0
 14 31  1  0  0  0  0
 28 31  1  0  0  0  0
 31 32  2  0  0  0  0
 26 33  2  0  0  0  0
 32 33  1  0  0  0  0
M  END
$$$$
