7JUP
  PyMOL3.1          3D                             0

 46 50  0  0  0  0  0  0  0  0999 V2000
   61.9760  105.0230   83.3400 C   0  0  0  0  0  0  0  0  0  0  0  0
   62.5230  105.1580   84.6860 N   0  0  0  0  0  0  0  0  0  0  0  0
   63.6690  105.8350   85.0500 C   0  0  0  0  0  0  0  0  0  0  0  0
   63.9580  105.6620   86.3290 N   0  0  0  0  0  0  0  0  0  0  0  0
   62.9970  104.8160   86.7820 C   0  0  0  0  0  0  0  0  0  0  0  0
   62.0970  104.5170   85.8240 C   0  0  0  0  0  0  0  0  0  0  0  0
   60.9610  103.6480   86.0150 C   0  0  0  0  0  0  0  0  0  0  0  0
   60.1220  103.4290   85.1580 O   0  0  0  0  0  0  0  0  0  0  0  0
   60.9400  103.0790   87.2510 N   0  0  0  0  0  0  0  0  0  0  0  0
   61.8600  103.4450   88.2170 C   0  0  0  0  0  0  0  0  0  0  0  0
   62.8720  104.2840   88.0350 N   0  0  0  0  0  0  0  0  0  0  0  0
   59.9400  102.0270   87.5740 C   0  0  0  0  0  0  0  0  0  0  0  0
   60.5530  100.6790   87.8390 C   0  0  0  0  0  0  0  0  0  0  0  0
   61.8010  100.4720   88.1670 N   0  0  0  0  0  0  0  0  0  0  0  0
   61.8040   99.1310   88.4130 C   0  0  0  0  0  0  0  0  0  0  0  0
   60.6400   98.5290   88.2340 N   0  0  0  0  0  0  0  0  0  0  0  0
   59.7780   99.5720   87.8660 O   0  0  0  0  0  0  0  0  0  0  0  0
   63.0520   98.4580   88.9090 C   0  0  0  0  0  0  0  0  0  0  0  0
   63.2160   96.9790   88.5070 C   0  0  0  0  0  0  0  0  0  0  0  0
   64.5100   96.9660   87.6920 C   0  0  0  0  0  0  0  0  0  0  0  0
   65.2440   98.0380   88.2700 O   0  0  0  0  0  0  0  0  0  0  0  0
   64.3230   99.1280   88.3730 C   0  0  0  0  0  0  0  0  0  0  0  0
   65.3200   95.6790   87.6970 C   0  0  0  0  0  0  0  0  0  0  0  0
   66.6780   95.7150   87.3420 C   0  0  0  0  0  0  0  0  0  0  0  0
   67.3820   94.5280   87.1230 C   0  0  0  0  0  0  0  0  0  0  0  0
   66.7310   93.3040   87.2760 C   0  0  0  0  0  0  0  0  0  0  0  0
   65.3990   93.2550   87.6760 C   0  0  0  0  0  0  0  0  0  0  0  0
   64.6920   94.4390   87.8860 C   0  0  0  0  0  0  0  0  0  0  0  0
   67.3870   92.1580   87.0430 F   0  0  0  0  0  0  0  0  0  0  0  0
   62.6660  105.4670   82.6120 H   0  0  0  0  0  0  0  0  0  0  0  0
   61.8440  103.9590   83.1040 H   0  0  0  0  0  0  0  0  0  0  0  0
   61.0040  105.5280   83.2800 H   0  0  0  0  0  0  0  0  0  0  0  0
   64.2440  106.4130   84.3380 H   0  0  0  0  0  0  0  0  0  0  0  0
   61.6890  102.9640   89.1710 H   0  0  0  0  0  0  0  0  0  0  0  0
   59.3880  102.3220   88.4750 H   0  0  0  0  0  0  0  0  0  0  0  0
   59.2090  101.9230   86.7620 H   0  0  0  0  0  0  0  0  0  0  0  0
   63.0760   98.5340   90.0030 H   0  0  0  0  0  0  0  0  0  0  0  0
   63.3100   96.3610   89.4080 H   0  0  0  0  0  0  0  0  0  0  0  0
   62.3790   96.5980   87.9080 H   0  0  0  0  0  0  0  0  0  0  0  0
   64.2650   97.2200   86.6540 H   0  0  0  0  0  0  0  0  0  0  0  0
   64.1520   99.5670   87.3820 H   0  0  0  0  0  0  0  0  0  0  0  0
   64.6870   99.9030   89.0590 H   0  0  0  0  0  0  0  0  0  0  0  0
   67.1760   96.6680   87.1910 H   0  0  0  0  0  0  0  0  0  0  0  0
   68.4220   94.5590   86.8110 H   0  0  0  0  0  0  0  0  0  0  0  0
   64.9070   92.2940   87.7970 H   0  0  0  0  0  0  0  0  0  0  0  0
   63.6400   94.3820   88.1510 H   0  0  0  0  0  0  0  0  0  0  0  0
  1  2  1  0  0  0  0
  2  3  1  0  0  0  0
  3  4  2  0  0  0  0
  4  5  1  0  0  0  0
  2  6  1  0  0  0  0
  5  6  2  0  0  0  0
  6  7  1  0  0  0  0
  7  8  2  0  0  0  0
  7  9  1  0  0  0  0
  9 10  1  0  0  0  0
  5 11  1  0  0  0  0
 10 11  2  0  0  0  0
  9 12  1  0  0  0  0
 12 13  1  0  0  0  0
 13 14  2  0  0  0  0
 14 15  1  0  0  0  0
 15 16  2  0  0  0  0
 13 17  1  0  0  0  0
 16 17  1  0  0  0  0
 15 18  1  0  0  0  0
 18 19  1  0  0  0  0
 19 20  1  0  0  0  0
 20 21  1  0  0  0  0
 18 22  1  0  0  0  0
 21 22  1  0  0  0  0
 20 23  1  0  0  0  0
 23 24  2  0  0  0  0
 24 25  1  0  0  0  0
 25 26  2  0  0  0  0
 26 27  1  0  0  0  0
 23 28  1  0  0  0  0
 27 28  2  0  0  0  0
 26 29  1  0  0  0  0
  1 30  1  0  0  0  0
  1 31  1  0  0  0  0
  1 32  1  0  0  0  0
  3 33  1  0  0  0  0
 10 34  1  0  0  0  0
 12 35  1  0  0  0  0
 12 36  1  0  0  0  0
 18 37  1  0  0  0  0
 19 38  1  0  0  0  0
 19 39  1  0  0  0  0
 20 40  1  0  0  0  0
 22 41  1  0  0  0  0
 22 42  1  0  0  0  0
 24 43  1  0  0  0  0
 25 44  1  0  0  0  0
 27 45  1  0  0  0  0
 28 46  1  0  0  0  0
M  END
$$$$
