7JUP
  PyMOL3.1          3D                             0

 46 50  0  0  0  0  0  0  0  0999 V2000
   99.1660   55.9250   83.6200 C   0  0  0  0  0  0  0  0  0  0  0  0
   98.6820   56.1650   84.9740 N   0  0  0  0  0  0  0  0  0  0  0  0
   97.5510   55.6090   85.5370 C   0  0  0  0  0  0  0  0  0  0  0  0
   97.4290   55.9260   86.8140 N   0  0  0  0  0  0  0  0  0  0  0  0
   98.4750   56.7580   87.0530 C   0  0  0  0  0  0  0  0  0  0  0  0
   99.2500   56.9350   85.9620 C   0  0  0  0  0  0  0  0  0  0  0  0
  100.4080   57.8010   85.9190 C   0  0  0  0  0  0  0  0  0  0  0  0
  101.0880   57.9800   84.9170 O   0  0  0  0  0  0  0  0  0  0  0  0
  100.6290   58.4410   87.1050 N   0  0  0  0  0  0  0  0  0  0  0  0
   99.8550   58.1600   88.2150 C   0  0  0  0  0  0  0  0  0  0  0  0
   98.7870   57.3780   88.2300 N   0  0  0  0  0  0  0  0  0  0  0  0
  101.6680   59.4990   87.2190 C   0  0  0  0  0  0  0  0  0  0  0  0
  101.1270   60.8330   87.6790 C   0  0  0  0  0  0  0  0  0  0  0  0
   99.8830   61.0670   87.9890 N   0  0  0  0  0  0  0  0  0  0  0  0
   99.9090   62.3880   88.3240 C   0  0  0  0  0  0  0  0  0  0  0  0
  101.0990   62.9580   88.2350 N   0  0  0  0  0  0  0  0  0  0  0  0
  101.9400   61.9050   87.8200 O   0  0  0  0  0  0  0  0  0  0  0  0
   98.6530   63.0600   88.8020 C   0  0  0  0  0  0  0  0  0  0  0  0
   98.4930   64.5630   88.4910 C   0  0  0  0  0  0  0  0  0  0  0  0
   97.1910   64.6240   87.6840 C   0  0  0  0  0  0  0  0  0  0  0  0
   96.4710   63.5000   88.1690 O   0  0  0  0  0  0  0  0  0  0  0  0
   97.4180   62.4320   88.1560 C   0  0  0  0  0  0  0  0  0  0  0  0
   96.3540   65.8900   87.7550 C   0  0  0  0  0  0  0  0  0  0  0  0
   94.9900   65.8350   87.4210 C   0  0  0  0  0  0  0  0  0  0  0  0
   94.2720   67.0080   87.1830 C   0  0  0  0  0  0  0  0  0  0  0  0
   94.9130   68.2400   87.3040 C   0  0  0  0  0  0  0  0  0  0  0  0
   96.2460   68.3100   87.7020 C   0  0  0  0  0  0  0  0  0  0  0  0
   96.9670   67.1370   87.9340 C   0  0  0  0  0  0  0  0  0  0  0  0
   94.2520   69.3760   87.0340 F   0  0  0  0  0  0  0  0  0  0  0  0
   98.7340   54.9850   83.2560 H   0  0  0  0  0  0  0  0  0  0  0  0
   98.8350   56.7260   82.9470 H   0  0  0  0  0  0  0  0  0  0  0  0
  100.2610   55.8640   83.6130 H   0  0  0  0  0  0  0  0  0  0  0  0
   96.8820   54.9710   84.9740 H   0  0  0  0  0  0  0  0  0  0  0  0
  100.1850   58.6770   89.1060 H   0  0  0  0  0  0  0  0  0  0  0  0
  102.4310   59.1740   87.9360 H   0  0  0  0  0  0  0  0  0  0  0  0
  102.1610   59.6520   86.2510 H   0  0  0  0  0  0  0  0  0  0  0  0
   98.5680   62.9100   89.8860 H   0  0  0  0  0  0  0  0  0  0  0  0
   98.4060   65.1340   89.4240 H   0  0  0  0  0  0  0  0  0  0  0  0
   99.3310   64.9650   87.9070 H   0  0  0  0  0  0  0  0  0  0  0  0
   97.4430   64.4530   86.6300 H   0  0  0  0  0  0  0  0  0  0  0  0
   97.6240   62.1240   87.1240 H   0  0  0  0  0  0  0  0  0  0  0  0
   97.0780   61.5640   88.7340 H   0  0  0  0  0  0  0  0  0  0  0  0
   94.4960   64.8760   87.2910 H   0  0  0  0  0  0  0  0  0  0  0  0
   93.2320   66.9580   86.8740 H   0  0  0  0  0  0  0  0  0  0  0  0
   96.7260   69.2790   87.7980 H   0  0  0  0  0  0  0  0  0  0  0  0
   98.0190   67.2070   88.1950 H   0  0  0  0  0  0  0  0  0  0  0  0
  1  2  1  0  0  0  0
  2  3  1  0  0  0  0
  3  4  2  0  0  0  0
  4  5  1  0  0  0  0
  2  6  1  0  0  0  0
  5  6  2  0  0  0  0
  6  7  1  0  0  0  0
  7  8  2  0  0  0  0
  7  9  1  0  0  0  0
  9 10  1  0  0  0  0
  5 11  1  0  0  0  0
 10 11  2  0  0  0  0
  9 12  1  0  0  0  0
 12 13  1  0  0  0  0
 13 14  2  0  0  0  0
 14 15  1  0  0  0  0
 15 16  2  0  0  0  0
 13 17  1  0  0  0  0
 16 17  1  0  0  0  0
 15 18  1  0  0  0  0
 18 19  1  0  0  0  0
 19 20  1  0  0  0  0
 20 21  1  0  0  0  0
 18 22  1  0  0  0  0
 21 22  1  0  0  0  0
 20 23  1  0  0  0  0
 23 24  2  0  0  0  0
 24 25  1  0  0  0  0
 25 26  2  0  0  0  0
 26 27  1  0  0  0  0
 23 28  1  0  0  0  0
 27 28  2  0  0  0  0
 26 29  1  0  0  0  0
  1 30  1  0  0  0  0
  1 31  1  0  0  0  0
  1 32  1  0  0  0  0
  3 33  1  0  0  0  0
 10 34  1  0  0  0  0
 12 35  1  0  0  0  0
 12 36  1  0  0  0  0
 18 37  1  0  0  0  0
 19 38  1  0  0  0  0
 19 39  1  0  0  0  0
 20 40  1  0  0  0  0
 22 41  1  0  0  0  0
 22 42  1  0  0  0  0
 24 43  1  0  0  0  0
 25 44  1  0  0  0  0
 27 45  1  0  0  0  0
 28 46  1  0  0  0  0
M  END
$$$$
