8SI5
  PyMOL3.1          3D                             0

228256  0  0  0  0  0  0  0  0999 V2000
   92.4480  153.1490  122.3910 C   0  0  0  0  0  0  0  0  0  0  0  0
   93.8840  152.8000  122.4700 C   0  0  0  0  0  0  0  0  0  0  0  0
   93.1070  153.0220  123.7010 C   0  0  0  0  0  0  0  0  0  0  0  0
   92.7780  151.8370  124.5530 C   0  0  0  0  0  0  0  0  0  0  0  0
   93.9950  151.0500  124.9760 N   0  3  0  0  0  0  0  0  0  0  0  0
   93.5960  149.6960  125.5000 C   0  0  0  0  0  0  0  0  0  0  0  0
   94.7000  148.9350  126.2080 C   0  0  0  0  0  0  0  0  0  0  0  0
   95.5000  149.7920  127.2060 C   0  0  0  0  0  0  0  0  0  0  0  0
   95.8210  149.0460  128.5240 C   0  0  0  0  0  0  0  0  0  0  0  0
   96.0850  149.9740  129.6030 C   0  0  0  0  0  0  0  0  0  0  0  0
   95.9940  151.3160  129.5670 C   0  0  0  0  0  0  0  0  0  0  0  0
   95.6300  152.0600  128.3210 C   0  0  0  0  0  0  0  0  0  0  0  0
   94.8870  151.1980  127.2990 C   0  0  0  0  0  0  0  0  0  0  0  0
   94.9660  151.8050  125.8740 C   0  0  0  0  0  0  0  0  0  0  0  0
   96.3770  151.8770  125.2570 C   0  0  0  0  0  0  0  0  0  0  0  0
   97.3390  150.8310  125.7620 C   0  0  0  0  0  0  0  0  0  0  0  0
   96.8860  149.9310  126.6940 C   0  0  0  0  0  0  0  0  0  0  0  0
   97.6840  148.9840  127.2760 C   0  0  0  0  0  0  0  0  0  0  0  0
   99.0100  148.8710  126.9210 C   0  0  0  0  0  0  0  0  0  0  0  0
   99.4990  149.7550  125.9640 C   0  0  0  0  0  0  0  0  0  0  0  0
   98.6740  150.7100  125.3920 C   0  0  0  0  0  0  0  0  0  0  0  0
   99.8160  147.9550  127.4990 O   0  0  0  0  0  0  0  0  0  0  0  0
   97.0150  148.2450  128.2200 O   0  0  0  0  0  0  0  0  0  0  0  0
   93.5310  151.2580  127.7600 O   0  0  0  0  0  0  0  0  0  0  0  0
   96.3640  151.7760  130.8680 C   0  0  0  0  0  0  0  0  0  0  0  0
   96.4780  153.0190  131.4810 C   0  0  0  0  0  0  0  0  0  0  0  0
   96.9410  153.0920  132.7840 C   0  0  0  0  0  0  0  0  0  0  0  0
   97.2710  151.9420  133.4830 C   0  0  0  0  0  0  0  0  0  0  0  0
   97.1450  150.6970  132.8940 C   0  0  0  0  0  0  0  0  0  0  0  0
   96.6890  150.6450  131.5960 C   0  0  0  0  0  0  0  0  0  0  0  0
   96.5120  149.5160  130.8290 O   0  0  0  0  0  0  0  0  0  0  0  0
   94.4170  150.9020  124.2240 H   0  0  0  0  0  0  0  0  0  0  0  0
   93.2830  153.8390  124.2070 H   0  0  0  0  0  0  0  0  0  0  0  0
   95.1040  148.4440  128.8000 H   0  0  0  0  0  0  0  0  0  0  0  0
   94.6380  152.7170  125.9150 H   0  0  0  0  0  0  0  0  0  0  0  0
  100.4330  149.7120  125.6970 H   0  0  0  0  0  0  0  0  0  0  0  0
   99.0500  151.2970  124.7110 H   0  0  0  0  0  0  0  0  0  0  0  0
  100.5810  148.0480  127.1650 H   0  0  0  0  0  0  0  0  0  0  0  0
   93.2720  152.0620  127.7140 H   0  0  0  0  0  0  0  0  0  0  0  0
   96.2220  153.8370  131.0170 H   0  0  0  0  0  0  0  0  0  0  0  0
   91.8410  152.4510  122.0770 H   0  0  0  0  0  0  0  0  0  0  0  0
   97.0410  153.9620  133.2050 H   0  0  0  0  0  0  0  0  0  0  0  0
   92.2160  154.0440  122.0800 H   0  0  0  0  0  0  0  0  0  0  0  0
   97.6120  152.0050  134.3940 H   0  0  0  0  0  0  0  0  0  0  0  0
   97.3820  149.8840  133.3740 H   0  0  0  0  0  0  0  0  0  0  0  0
   94.5410  153.4660  122.1780 H   0  0  0  0  0  0  0  0  0  0  0  0
   94.1420  151.8760  122.2770 H   0  0  0  0  0  0  0  0  0  0  0  0
   92.2210  151.2200  124.0370 H   0  0  0  0  0  0  0  0  0  0  0  0
   92.2920  152.1180  125.3540 H   0  0  0  0  0  0  0  0  0  0  0  0
   93.3430  149.2050  124.6970 H   0  0  0  0  0  0  0  0  0  0  0  0
   92.7690  149.7740  126.0170 H   0  0  0  0  0  0  0  0  0  0  0  0
   94.3110  148.1620  126.6520 H   0  0  0  0  0  0  0  0  0  0  0  0
   95.2800  148.5700  125.5170 H   0  0  0  0  0  0  0  0  0  0  0  0
   95.0540  152.8010  128.5720 H   0  0  0  0  0  0  0  0  0  0  0  0
   96.4480  152.4520  127.9710 H   0  0  0  0  0  0  0  0  0  0  0  0
   96.7520  152.7440  125.4970 H   0  0  0  0  0  0  0  0  0  0  0  0
   96.3350  151.8390  124.2840 H   0  0  0  0  0  0  0  0  0  0  0  0
  156.5950   95.8520  122.4250 C   0  0  0  0  0  0  0  0  0  0  0  0
  155.1570   96.1940  122.4950 C   0  0  0  0  0  0  0  0  0  0  0  0
  155.9230   95.9630  123.7310 C   0  0  0  0  0  0  0  0  0  0  0  0
  156.2400   97.1410  124.5980 C   0  0  0  0  0  0  0  0  0  0  0  0
  155.0180   97.9340  124.9950 N   0  3  0  0  0  0  0  0  0  0  0  0
  155.4130   99.2920  125.5120 C   0  0  0  0  0  0  0  0  0  0  0  0
  154.3050  100.0580  126.2090 C   0  0  0  0  0  0  0  0  0  0  0  0
  153.5000   99.2080  127.2090 C   0  0  0  0  0  0  0  0  0  0  0  0
  153.1790   99.9610  128.5230 C   0  0  0  0  0  0  0  0  0  0  0  0
  152.9100   99.0380  129.6050 C   0  0  0  0  0  0  0  0  0  0  0  0
  152.9970   97.6960  129.5740 C   0  0  0  0  0  0  0  0  0  0  0  0
  153.3570   96.9450  128.3310 C   0  0  0  0  0  0  0  0  0  0  0  0
  154.1070   97.8010  127.3100 C   0  0  0  0  0  0  0  0  0  0  0  0
  154.0340   97.1900  125.8870 C   0  0  0  0  0  0  0  0  0  0  0  0
  152.6260   97.1260  125.2580 C   0  0  0  0  0  0  0  0  0  0  0  0
  151.6630   98.1700  125.7620 C   0  0  0  0  0  0  0  0  0  0  0  0
  152.1150   99.0720  126.6940 C   0  0  0  0  0  0  0  0  0  0  0  0
  151.3170  100.0200  127.2730 C   0  0  0  0  0  0  0  0  0  0  0  0
  149.9910  100.1320  126.9170 C   0  0  0  0  0  0  0  0  0  0  0  0
  149.5030   99.2460  125.9610 C   0  0  0  0  0  0  0  0  0  0  0  0
  150.3290   98.2910  125.3910 C   0  0  0  0  0  0  0  0  0  0  0  0
  149.1840  101.0470  127.4950 O   0  0  0  0  0  0  0  0  0  0  0  0
  151.9870  100.7630  128.2140 O   0  0  0  0  0  0  0  0  0  0  0  0
  155.4610   97.7390  127.7780 O   0  0  0  0  0  0  0  0  0  0  0  0
  152.6250   97.2420  130.8780 C   0  0  0  0  0  0  0  0  0  0  0  0
  152.5090   96.0020  131.4960 C   0  0  0  0  0  0  0  0  0  0  0  0
  152.0450   95.9360  132.7980 C   0  0  0  0  0  0  0  0  0  0  0  0
  151.7160   97.0890  133.4930 C   0  0  0  0  0  0  0  0  0  0  0  0
  151.8440   98.3310  132.8980 C   0  0  0  0  0  0  0  0  0  0  0  0
  152.3020   98.3770  131.6000 C   0  0  0  0  0  0  0  0  0  0  0  0
  152.4830   99.5020  130.8290 O   0  0  0  0  0  0  0  0  0  0  0  0
  154.6060   98.0780  124.2370 H   0  0  0  0  0  0  0  0  0  0  0  0
  155.7430   95.1400  124.2270 H   0  0  0  0  0  0  0  0  0  0  0  0
  153.8960  100.5620  128.7980 H   0  0  0  0  0  0  0  0  0  0  0  0
  154.3560   96.2750  125.9300 H   0  0  0  0  0  0  0  0  0  0  0  0
  148.5690   99.2890  125.6930 H   0  0  0  0  0  0  0  0  0  0  0  0
  149.9520   97.7020  124.7120 H   0  0  0  0  0  0  0  0  0  0  0  0
  148.4190  100.9530  127.1600 H   0  0  0  0  0  0  0  0  0  0  0  0
  155.7160   96.9330  127.7390 H   0  0  0  0  0  0  0  0  0  0  0  0
  152.7640   95.1820  131.0360 H   0  0  0  0  0  0  0  0  0  0  0  0
  157.2010   96.5550  122.1240 H   0  0  0  0  0  0  0  0  0  0  0  0
  151.9440   95.0680  133.2240 H   0  0  0  0  0  0  0  0  0  0  0  0
  156.8330   94.9610  122.1060 H   0  0  0  0  0  0  0  0  0  0  0  0
  151.3720   97.0310  134.4030 H   0  0  0  0  0  0  0  0  0  0  0  0
  151.6080   99.1470  133.3730 H   0  0  0  0  0  0  0  0  0  0  0  0
  154.5050   95.5300  122.1910 H   0  0  0  0  0  0  0  0  0  0  0  0
  154.8990   97.1190  122.3070 H   0  0  0  0  0  0  0  0  0  0  0  0
  156.8160   97.7550  124.1020 H   0  0  0  0  0  0  0  0  0  0  0  0
  156.7020   96.8500  125.4100 H   0  0  0  0  0  0  0  0  0  0  0  0
  155.6710   99.7780  124.7070 H   0  0  0  0  0  0  0  0  0  0  0  0
  156.2370   99.2170  126.0350 H   0  0  0  0  0  0  0  0  0  0  0  0
  154.6920  100.8350  126.6490 H   0  0  0  0  0  0  0  0  0  0  0  0
  153.7290  100.4170  125.5110 H   0  0  0  0  0  0  0  0  0  0  0  0
  153.9270   96.2010  128.5860 H   0  0  0  0  0  0  0  0  0  0  0  0
  152.5370   96.5570  127.9800 H   0  0  0  0  0  0  0  0  0  0  0  0
  152.2480   96.2580  125.4900 H   0  0  0  0  0  0  0  0  0  0  0  0
  152.6770   97.1690  124.2860 H   0  0  0  0  0  0  0  0  0  0  0  0
   95.7630   92.1380  122.5870 C   0  0  0  0  0  0  0  0  0  0  0  0
   96.2780   93.5090  122.3870 C   0  0  0  0  0  0  0  0  0  0  0  0
   95.9740   93.0270  123.7410 C   0  0  0  0  0  0  0  0  0  0  0  0
   97.1210   92.7440  124.6580 C   0  0  0  0  0  0  0  0  0  0  0  0
   97.9180   93.9770  125.0060 N   0  3  0  0  0  0  0  0  0  0  0  0
   99.2850   93.5950  125.5120 C   0  0  0  0  0  0  0  0  0  0  0  0
  100.0510   94.7060  126.2070 C   0  0  0  0  0  0  0  0  0  0  0  0
   99.2040   95.5130  127.2090 C   0  0  0  0  0  0  0  0  0  0  0  0
   99.9570   95.8310  128.5230 C   0  0  0  0  0  0  0  0  0  0  0  0
   99.0330   96.0990  129.6050 C   0  0  0  0  0  0  0  0  0  0  0  0
   97.6910   96.0170  129.5720 C   0  0  0  0  0  0  0  0  0  0  0  0
   96.9400   95.6670  128.3260 C   0  0  0  0  0  0  0  0  0  0  0  0
   97.7950   94.9110  127.3090 C   0  0  0  0  0  0  0  0  0  0  0  0
   97.1870   94.9820  125.8850 C   0  0  0  0  0  0  0  0  0  0  0  0
   97.1410   96.3840  125.2420 C   0  0  0  0  0  0  0  0  0  0  0  0
   98.1770   97.3500  125.7570 C   0  0  0  0  0  0  0  0  0  0  0  0
   99.0740   96.8970  126.6920 C   0  0  0  0  0  0  0  0  0  0  0  0
  100.0220   97.6940  127.2750 C   0  0  0  0  0  0  0  0  0  0  0  0
  100.1350   99.0190  126.9220 C   0  0  0  0  0  0  0  0  0  0  0  0
   99.2520   99.5090  125.9640 C   0  0  0  0  0  0  0  0  0  0  0  0
   98.2980   98.6850  125.3900 C   0  0  0  0  0  0  0  0  0  0  0  0
  101.0500   99.8260  127.5020 O   0  0  0  0  0  0  0  0  0  0  0  0
  100.7620   97.0210  128.2160 O   0  0  0  0  0  0  0  0  0  0  0  0
   97.7300   93.5580  127.7790 O   0  0  0  0  0  0  0  0  0  0  0  0
   97.2370   96.3820  130.8770 C   0  0  0  0  0  0  0  0  0  0  0  0
   95.9970   96.4970  131.4950 C   0  0  0  0  0  0  0  0  0  0  0  0
   95.9300   96.9570  132.7990 C   0  0  0  0  0  0  0  0  0  0  0  0
   97.0830   97.2810  133.4960 C   0  0  0  0  0  0  0  0  0  0  0  0
   98.3260   97.1510  132.9010 C   0  0  0  0  0  0  0  0  0  0  0  0
   98.3720   96.6990  131.6020 C   0  0  0  0  0  0  0  0  0  0  0  0
   99.4980   96.5190  130.8310 O   0  0  0  0  0  0  0  0  0  0  0  0
   98.0420   94.3650  124.2300 H   0  0  0  0  0  0  0  0  0  0  0  0
   95.1870   93.3980  124.1850 H   0  0  0  0  0  0  0  0  0  0  0  0
  100.5570   95.1120  128.7970 H   0  0  0  0  0  0  0  0  0  0  0  0
   96.2690   94.6670  125.9210 H   0  0  0  0  0  0  0  0  0  0  0  0
   99.2960  100.4440  125.6970 H   0  0  0  0  0  0  0  0  0  0  0  0
   97.7120   99.0630  124.7100 H   0  0  0  0  0  0  0  0  0  0  0  0
  100.9570  100.5920  127.1680 H   0  0  0  0  0  0  0  0  0  0  0  0
   96.9230   93.3080  127.7520 H   0  0  0  0  0  0  0  0  0  0  0  0
   95.1770   96.2440  131.0330 H   0  0  0  0  0  0  0  0  0  0  0  0
   96.3820   91.4010  122.4190 H   0  0  0  0  0  0  0  0  0  0  0  0
   95.0620   97.0570  133.2240 H   0  0  0  0  0  0  0  0  0  0  0  0
   94.8450   91.9560  122.3090 H   0  0  0  0  0  0  0  0  0  0  0  0
   97.0250   97.6210  134.4070 H   0  0  0  0  0  0  0  0  0  0  0  0
   99.1420   97.3850  133.3790 H   0  0  0  0  0  0  0  0  0  0  0  0
   95.6900   94.1700  121.9680 H   0  0  0  0  0  0  0  0  0  0  0  0
   97.2250   93.6180  122.1670 H   0  0  0  0  0  0  0  0  0  0  0  0
   97.7400   92.1310  124.2130 H   0  0  0  0  0  0  0  0  0  0  0  0
   96.8000   92.3340  125.4850 H   0  0  0  0  0  0  0  0  0  0  0  0
   99.7670   93.3390  124.7050 H   0  0  0  0  0  0  0  0  0  0  0  0
   99.2160   92.7740  126.0390 H   0  0  0  0  0  0  0  0  0  0  0  0
  100.8280   94.3190  126.6480 H   0  0  0  0  0  0  0  0  0  0  0  0
  100.4100   95.2810  125.5080 H   0  0  0  0  0  0  0  0  0  0  0  0
   96.1900   95.1030  128.5780 H   0  0  0  0  0  0  0  0  0  0  0  0
   96.5610   96.4900  127.9730 H   0  0  0  0  0  0  0  0  0  0  0  0
   96.2700   96.7670  125.4540 H   0  0  0  0  0  0  0  0  0  0  0  0
   97.2020   96.3250  124.2710 H   0  0  0  0  0  0  0  0  0  0  0  0
  153.1440  156.5270  122.3910 C   0  0  0  0  0  0  0  0  0  0  0  0
  152.8360  155.0840  122.5100 C   0  0  0  0  0  0  0  0  0  0  0  0
  153.0420  155.9000  123.7210 C   0  0  0  0  0  0  0  0  0  0  0  0
  151.8550  156.2250  124.5720 C   0  0  0  0  0  0  0  0  0  0  0  0
  151.0630  155.0080  124.9830 N   0  3  0  0  0  0  0  0  0  0  0  0
  149.7090  155.4090  125.5050 C   0  0  0  0  0  0  0  0  0  0  0  0
  148.9430  154.3040  126.2080 C   0  0  0  0  0  0  0  0  0  0  0  0
  149.7950  153.5000  127.2060 C   0  0  0  0  0  0  0  0  0  0  0  0
  149.0460  153.1800  128.5220 C   0  0  0  0  0  0  0  0  0  0  0  0
  149.9710  152.9120  129.6020 C   0  0  0  0  0  0  0  0  0  0  0  0
  151.3130  152.9990  129.5680 C   0  0  0  0  0  0  0  0  0  0  0  0
  152.0610  153.3580  128.3230 C   0  0  0  0  0  0  0  0  0  0  0  0
  151.2030  154.1060  127.3020 C   0  0  0  0  0  0  0  0  0  0  0  0
  151.8110  154.0290  125.8780 C   0  0  0  0  0  0  0  0  0  0  0  0
  151.8760  152.6190  125.2550 C   0  0  0  0  0  0  0  0  0  0  0  0
  150.8290  151.6590  125.7600 C   0  0  0  0  0  0  0  0  0  0  0  0
  149.9290  152.1130  126.6920 C   0  0  0  0  0  0  0  0  0  0  0  0
  148.9800  151.3170  127.2740 C   0  0  0  0  0  0  0  0  0  0  0  0
  148.8650  149.9920  126.9190 C   0  0  0  0  0  0  0  0  0  0  0  0
  149.7490  149.5010  125.9630 C   0  0  0  0  0  0  0  0  0  0  0  0
  150.7060  150.3240  125.3910 C   0  0  0  0  0  0  0  0  0  0  0  0
  147.9480  149.1870  127.4970 O   0  0  0  0  0  0  0  0  0  0  0  0
  148.2410  151.9890  128.2170 O   0  0  0  0  0  0  0  0  0  0  0  0
  151.2680  155.4620  127.7670 O   0  0  0  0  0  0  0  0  0  0  0  0
  151.7690  152.6300  130.8710 C   0  0  0  0  0  0  0  0  0  0  0  0
  153.0110  152.5150  131.4870 C   0  0  0  0  0  0  0  0  0  0  0  0
  153.0800  152.0520  132.7900 C   0  0  0  0  0  0  0  0  0  0  0  0
  151.9280  151.7260  133.4880 C   0  0  0  0  0  0  0  0  0  0  0  0
  150.6840  151.8540  132.8950 C   0  0  0  0  0  0  0  0  0  0  0  0
  150.6360  152.3090  131.5970 C   0  0  0  0  0  0  0  0  0  0  0  0
  149.5090  152.4880  130.8280 O   0  0  0  0  0  0  0  0  0  0  0  0
  150.9130  154.5900  124.2290 H   0  0  0  0  0  0  0  0  0  0  0  0
  153.8670  155.7600  124.2260 H   0  0  0  0  0  0  0  0  0  0  0  0
  148.4460  153.8990  128.7980 H   0  0  0  0  0  0  0  0  0  0  0  0
  152.7260  154.3510  125.9200 H   0  0  0  0  0  0  0  0  0  0  0  0
  149.7060  148.5670  125.6970 H   0  0  0  0  0  0  0  0  0  0  0  0
  151.2930  149.9460  124.7120 H   0  0  0  0  0  0  0  0  0  0  0  0
  148.0380  148.4210  127.1630 H   0  0  0  0  0  0  0  0  0  0  0  0
  152.0730  155.7150  127.7290 H   0  0  0  0  0  0  0  0  0  0  0  0
  153.8300  152.7680  131.0240 H   0  0  0  0  0  0  0  0  0  0  0  0
  152.4280  157.1050  122.0650 H   0  0  0  0  0  0  0  0  0  0  0  0
  153.9490  151.9520  133.2140 H   0  0  0  0  0  0  0  0  0  0  0  0
  154.0310  156.7760  122.0680 H   0  0  0  0  0  0  0  0  0  0  0  0
  151.9880  151.3850  134.3980 H   0  0  0  0  0  0  0  0  0  0  0  0
  149.8690  151.6190  133.3740 H   0  0  0  0  0  0  0  0  0  0  0  0
  153.5180  154.4400  122.2300 H   0  0  0  0  0  0  0  0  0  0  0  0
  151.9200  154.7970  122.3250 H   0  0  0  0  0  0  0  0  0  0  0  0
  151.2420  156.7900  124.0590 H   0  0  0  0  0  0  0  0  0  0  0  0
  152.1360  156.7040  125.3770 H   0  0  0  0  0  0  0  0  0  0  0  0
  149.2200  155.6650  124.7010 H   0  0  0  0  0  0  0  0  0  0  0  0
  149.7870  156.2340  126.0250 H   0  0  0  0  0  0  0  0  0  0  0  0
  148.1700  154.6960  126.6520 H   0  0  0  0  0  0  0  0  0  0  0  0
  148.5770  153.7280  125.5140 H   0  0  0  0  0  0  0  0  0  0  0  0
  152.8050  153.9280  128.5760 H   0  0  0  0  0  0  0  0  0  0  0  0
  152.4480  152.5370  127.9720 H   0  0  0  0  0  0  0  0  0  0  0  0
  152.7430  152.2410  125.4900 H   0  0  0  0  0  0  0  0  0  0  0  0
  151.8340  152.6650  124.2820 H   0  0  0  0  0  0  0  0  0  0  0  0
  1  2  1  0  0  0  0
  1  3  1  0  0  0  0
  1 41  1  0  0  0  0
  1 43  1  0  0  0  0
  2  3  1  0  0  0  0
  2 46  1  0  0  0  0
  2 47  1  0  0  0  0
  3  4  1  0  0  0  0
  3 33  1  0  0  0  0
  4  5  1  0  0  0  0
  4 48  1  0  0  0  0
  4 49  1  0  0  0  0
  5 32  1  0  0  0  0
  5  6  1  0  0  0  0
  6  7  1  0  0  0  0
  6 50  1  0  0  0  0
  6 51  1  0  0  0  0
  7  8  1  0  0  0  0
  7 52  1  0  0  0  0
  7 53  1  0  0  0  0
  8  9  1  0  0  0  0
  9 23  1  0  0  0  0
  9 34  1  0  0  0  0
  9 10  1  0  0  0  0
 10 11  4  0  0  0  0
 10 31  4  0  0  0  0
 11 12  1  0  0  0  0
 11 25  4  0  0  0  0
 12 13  1  0  0  0  0
 12 54  1  0  0  0  0
 12 55  1  0  0  0  0
  8 13  1  0  0  0  0
 13 14  1  0  0  0  0
 13 24  1  0  0  0  0
  5 14  1  0  0  0  0
 14 15  1  0  0  0  0
 14 35  1  0  0  0  0
 15 16  1  0  0  0  0
 15 56  1  0  0  0  0
 15 57  1  0  0  0  0
 16 17  4  0  0  0  0
 16 21  4  0  0  0  0
  8 17  1  0  0  0  0
 17 18  4  0  0  0  0
 18 19  4  0  0  0  0
 18 23  1  0  0  0  0
 19 20  4  0  0  0  0
 19 22  1  0  0  0  0
 20 21  4  0  0  0  0
 20 36  1  0  0  0  0
 21 37  1  0  0  0  0
 22 38  1  0  0  0  0
 24 39  1  0  0  0  0
 25 26  4  0  0  0  0
 25 30  4  0  0  0  0
 26 27  4  0  0  0  0
 26 40  1  0  0  0  0
 27 28  4  0  0  0  0
 27 42  1  0  0  0  0
 28 29  4  0  0  0  0
 28 44  1  0  0  0  0
 29 30  4  0  0  0  0
 29 45  1  0  0  0  0
 30 31  4  0  0  0  0
 58 59  1  0  0  0  0
 58 60  1  0  0  0  0
 58 98  1  0  0  0  0
 58100  1  0  0  0  0
 59 60  1  0  0  0  0
 59103  1  0  0  0  0
 59104  1  0  0  0  0
 60 61  1  0  0  0  0
 60 90  1  0  0  0  0
 61 62  1  0  0  0  0
 61105  1  0  0  0  0
 61106  1  0  0  0  0
 62 89  1  0  0  0  0
 62 63  1  0  0  0  0
 63 64  1  0  0  0  0
 63107  1  0  0  0  0
 63108  1  0  0  0  0
 64 65  1  0  0  0  0
 64109  1  0  0  0  0
 64110  1  0  0  0  0
 65 66  1  0  0  0  0
 66 80  1  0  0  0  0
 66 91  1  0  0  0  0
 66 67  1  0  0  0  0
 67 68  4  0  0  0  0
 67 88  4  0  0  0  0
 68 69  1  0  0  0  0
 68 82  4  0  0  0  0
 69 70  1  0  0  0  0
 69111  1  0  0  0  0
 69112  1  0  0  0  0
 65 70  1  0  0  0  0
 70 71  1  0  0  0  0
 70 81  1  0  0  0  0
 62 71  1  0  0  0  0
 71 72  1  0  0  0  0
 71 92  1  0  0  0  0
 72 73  1  0  0  0  0
 72113  1  0  0  0  0
 72114  1  0  0  0  0
 73 74  4  0  0  0  0
 73 78  4  0  0  0  0
 65 74  1  0  0  0  0
 74 75  4  0  0  0  0
 75 76  4  0  0  0  0
 75 80  1  0  0  0  0
 76 77  4  0  0  0  0
 76 79  1  0  0  0  0
 77 78  4  0  0  0  0
 77 93  1  0  0  0  0
 78 94  1  0  0  0  0
 79 95  1  0  0  0  0
 81 96  1  0  0  0  0
 82 83  4  0  0  0  0
 82 87  4  0  0  0  0
 83 84  4  0  0  0  0
 83 97  1  0  0  0  0
 84 85  4  0  0  0  0
 84 99  1  0  0  0  0
 85 86  4  0  0  0  0
 85101  1  0  0  0  0
 86 87  4  0  0  0  0
 86102  1  0  0  0  0
 87 88  4  0  0  0  0
115116  1  0  0  0  0
115117  1  0  0  0  0
115155  1  0  0  0  0
115157  1  0  0  0  0
116117  1  0  0  0  0
116160  1  0  0  0  0
116161  1  0  0  0  0
117118  1  0  0  0  0
117147  1  0  0  0  0
118119  1  0  0  0  0
118162  1  0  0  0  0
118163  1  0  0  0  0
119146  1  0  0  0  0
119120  1  0  0  0  0
120121  1  0  0  0  0
120164  1  0  0  0  0
120165  1  0  0  0  0
121122  1  0  0  0  0
121166  1  0  0  0  0
121167  1  0  0  0  0
122123  1  0  0  0  0
123137  1  0  0  0  0
123148  1  0  0  0  0
123124  1  0  0  0  0
124125  4  0  0  0  0
124145  4  0  0  0  0
125126  1  0  0  0  0
125139  4  0  0  0  0
126127  1  0  0  0  0
126168  1  0  0  0  0
126169  1  0  0  0  0
122127  1  0  0  0  0
127128  1  0  0  0  0
127138  1  0  0  0  0
119128  1  0  0  0  0
128129  1  0  0  0  0
128149  1  0  0  0  0
129130  1  0  0  0  0
129170  1  0  0  0  0
129171  1  0  0  0  0
130131  4  0  0  0  0
130135  4  0  0  0  0
122131  1  0  0  0  0
131132  4  0  0  0  0
132133  4  0  0  0  0
132137  1  0  0  0  0
133134  4  0  0  0  0
133136  1  0  0  0  0
134135  4  0  0  0  0
134150  1  0  0  0  0
135151  1  0  0  0  0
136152  1  0  0  0  0
138153  1  0  0  0  0
139140  4  0  0  0  0
139144  4  0  0  0  0
140141  4  0  0  0  0
140154  1  0  0  0  0
141142  4  0  0  0  0
141156  1  0  0  0  0
142143  4  0  0  0  0
142158  1  0  0  0  0
143144  4  0  0  0  0
143159  1  0  0  0  0
144145  4  0  0  0  0
172173  1  0  0  0  0
172174  1  0  0  0  0
172212  1  0  0  0  0
172214  1  0  0  0  0
173174  1  0  0  0  0
173217  1  0  0  0  0
173218  1  0  0  0  0
174175  1  0  0  0  0
174204  1  0  0  0  0
175176  1  0  0  0  0
175219  1  0  0  0  0
175220  1  0  0  0  0
176203  1  0  0  0  0
176177  1  0  0  0  0
177178  1  0  0  0  0
177221  1  0  0  0  0
177222  1  0  0  0  0
178179  1  0  0  0  0
178223  1  0  0  0  0
178224  1  0  0  0  0
179180  1  0  0  0  0
180194  1  0  0  0  0
180205  1  0  0  0  0
180181  1  0  0  0  0
181182  4  0  0  0  0
181202  4  0  0  0  0
182183  1  0  0  0  0
182196  4  0  0  0  0
183184  1  0  0  0  0
183225  1  0  0  0  0
183226  1  0  0  0  0
179184  1  0  0  0  0
184185  1  0  0  0  0
184195  1  0  0  0  0
176185  1  0  0  0  0
185186  1  0  0  0  0
185206  1  0  0  0  0
186187  1  0  0  0  0
186227  1  0  0  0  0
186228  1  0  0  0  0
187188  4  0  0  0  0
187192  4  0  0  0  0
179188  1  0  0  0  0
188189  4  0  0  0  0
189190  4  0  0  0  0
189194  1  0  0  0  0
190191  4  0  0  0  0
190193  1  0  0  0  0
191192  4  0  0  0  0
191207  1  0  0  0  0
192208  1  0  0  0  0
193209  1  0  0  0  0
195210  1  0  0  0  0
196197  4  0  0  0  0
196201  4  0  0  0  0
197198  4  0  0  0  0
197211  1  0  0  0  0
198199  4  0  0  0  0
198213  1  0  0  0  0
199200  4  0  0  0  0
199215  1  0  0  0  0
200201  4  0  0  0  0
200216  1  0  0  0  0
201202  4  0  0  0  0
M  END
$$$$
