7WCN
  PyMOL3.1          3D                             0

 35 38  0  0  0  0  0  0  0  0999 V2000
  119.4800  113.5410  143.2690 C   0  0  0  0  0  0  0  0  0  0  0  0
  119.3160  114.5360  144.4120 C   0  0  0  0  0  0  0  0  0  0  0  0
  118.3020  114.0340  145.4320 C   0  0  0  0  0  0  0  0  0  0  0  0
  120.6560  114.8120  145.0820 C   0  0  0  0  0  0  0  0  0  0  0  0
  121.1820  114.0870  146.0480 N   0  0  0  0  0  0  0  0  0  0  0  0
  122.3730  114.6520  146.3720 O   0  0  0  0  0  0  0  0  0  0  0  0
  122.5240  115.7220  145.5830 C   0  0  0  0  0  0  0  0  0  0  0  0
  123.7160  116.6670  145.5930 C   0  0  0  0  0  0  0  0  0  0  0  0
  124.2490  116.2430  146.8760 C   0  0  0  0  0  0  0  0  0  0  0  0
  123.8040  117.0840  148.0720 C   0  0  0  0  0  0  0  0  0  0  0  0
  124.0780  118.5790  147.9350 N   0  0  0  0  0  0  0  0  0  0  0  0
  124.7190  119.2970  149.0310 C   0  0  0  0  0  0  0  0  0  0  0  0
  124.6810  118.7700  150.2380 N   0  0  0  0  0  0  0  0  0  0  0  0
  125.2440  119.3800  151.2660 C   0  0  0  0  0  0  0  0  0  0  0  0
  125.8670  120.5400  151.1370 N   0  0  0  0  0  0  0  0  0  0  0  0
  125.9470  121.1250  149.9620 C   0  0  0  0  0  0  0  0  0  0  0  0
  126.6010  122.3990  149.7110 N   0  0  0  0  0  0  0  0  0  0  0  0
  127.5260  123.1640  150.5330 C   0  0  0  0  0  0  0  0  0  0  0  0
  127.5730  124.5250  150.2880 C   0  0  0  0  0  0  0  0  0  0  0  0
  128.4280  125.3510  150.9930 C   0  0  0  0  0  0  0  0  0  0  0  0
  129.2530  124.8130  151.9550 C   0  0  0  0  0  0  0  0  0  0  0  0
  130.3710  125.9080  152.8730 S   0  0  0  0  0  0  0  0  0  0  0  0
  130.0170  127.6410  152.4800 C   0  0  0  0  0  0  0  0  0  0  0  0
  131.7710  125.5900  152.6040 O   0  0  0  0  0  0  0  0  0  0  0  0
  130.2750  125.6670  154.3100 O   0  0  0  0  0  0  0  0  0  0  0  0
  129.2240  123.4500  152.1990 C   0  0  0  0  0  0  0  0  0  0  0  0
  128.3670  122.6190  151.4920 C   0  0  0  0  0  0  0  0  0  0  0  0
  125.3680  120.5170  148.8700 C   0  0  0  0  0  0  0  0  0  0  0  0
  125.4810  121.2140  147.6140 N   0  0  0  0  0  0  0  0  0  0  0  0
  124.5750  121.8420  147.2230 O   0  0  0  0  0  0  0  0  0  0  0  0
  126.4780  121.1660  147.0030 O   0  0  0  0  0  0  0  0  0  0  0  0
  124.4100  118.8310  146.4700 C   0  0  0  0  0  0  0  0  0  0  0  0
  123.4670  118.0890  145.5370 C   0  0  0  0  0  0  0  0  0  0  0  0
  121.4690  115.8090  144.7970 N   0  0  0  0  0  0  0  0  0  0  0  0
  128.3680  121.2850  151.7600 F   0  0  0  0  0  0  0  0  0  0  0  0
  1  2  1  0  0  0  0
  2  3  1  0  0  0  0
  2  4  1  0  0  0  0
  4  5  4  0  0  0  0
  4 34  4  0  0  0  0
  5  6  4  0  0  0  0
  6  7  4  0  0  0  0
  7  8  1  0  0  0  0
  7 34  4  0  0  0  0
  8  9  1  0  0  0  0
  8 33  1  0  0  0  0
  9 10  1  0  0  0  0
 10 11  1  0  0  0  0
 11 12  1  0  0  0  0
 12 13  4  0  0  0  0
 12 28  4  0  0  0  0
 13 14  4  0  0  0  0
 14 15  4  0  0  0  0
 15 16  4  0  0  0  0
 16 17  1  0  0  0  0
 16 28  4  0  0  0  0
 17 18  1  0  0  0  0
 18 19  4  0  0  0  0
 18 27  4  0  0  0  0
 19 20  4  0  0  0  0
 20 21  4  0  0  0  0
 21 22  1  0  0  0  0
 21 26  4  0  0  0  0
 22 23  1  0  0  0  0
 22 24  2  0  0  0  0
 22 25  2  0  0  0  0
 26 27  4  0  0  0  0
 27 35  1  0  0  0  0
 28 29  1  0  0  0  0
 29 30  4  0  0  0  0
 29 31  4  0  0  0  0
 11 32  1  0  0  0  0
 32 33  1  0  0  0  0
M  END
$$$$
