7VSI
  PyMOL3.1          3D                             0

 31 34  0  0  0  0  0  0  0  0999 V2000
   37.3040   48.6210   50.0880 Cl  0  0  0  0  0  0  0  0  0  0  0  0
   39.6250   47.7840   44.2140 O   0  0  0  0  0  0  0  0  0  0  0  0
   37.3080   47.9650   41.1100 O   0  0  0  0  0  0  0  0  0  0  0  0
   36.4280   46.7780   43.3630 O   0  0  0  0  0  0  0  0  0  0  0  0
   40.0760   47.9310   40.7100 O   0  0  0  0  0  0  0  0  0  0  0  0
   42.3030   47.9880   44.1060 O   0  0  0  0  0  0  0  0  0  0  0  0
   39.5430   56.9080   50.1850 O   0  0  0  0  0  0  0  0  0  0  0  0
   37.6590   54.9370   49.4640 O   0  0  0  0  0  0  0  0  0  0  0  0
   38.2000   47.2840   41.9920 C   0  0  0  0  0  0  0  0  0  0  0  0
   37.6470   47.4950   43.2780 C   0  0  0  0  0  0  0  0  0  0  0  0
   39.3930   48.1050   41.9240 C   0  0  0  0  0  0  0  0  0  0  0  0
   38.5600   46.8290   44.2170 C   0  0  0  0  0  0  0  0  0  0  0  0
   40.3250   47.6650   42.9920 C   0  0  0  0  0  0  0  0  0  0  0  0
   38.2680   47.1060   45.5990 C   0  0  0  0  0  0  0  0  0  0  0  0
   41.4740   48.5790   43.1180 C   0  0  0  0  0  0  0  0  0  0  0  0
   37.2170   48.1030   45.8730 C   0  0  0  0  0  0  0  0  0  0  0  0
   39.1030   46.6780   46.7560 C   0  0  0  0  0  0  0  0  0  0  0  0
   36.8970   48.5790   47.3020 C   0  0  0  0  0  0  0  0  0  0  0  0
   39.0390   55.1070   48.9380 C   0  0  0  0  0  0  0  0  0  0  0  0
   35.7100   49.5390   47.5650 C   0  0  0  0  0  0  0  0  0  0  0  0
   38.8290   47.0950   48.1960 C   0  0  0  0  0  0  0  0  0  0  0  0
   37.6680   48.0600   48.4410 C   0  0  0  0  0  0  0  0  0  0  0  0
   39.0750   56.0390   48.1100 C   0  0  0  0  0  0  0  0  0  0  0  0
   40.0130   55.5100   50.1310 C   0  0  0  0  0  0  0  0  0  0  0  0
   39.7230   57.2470   48.9640 C   0  0  0  0  0  0  0  0  0  0  0  0
   36.1600   50.9110   48.0240 C   0  0  0  0  0  0  0  0  0  0  0  0
   37.1670   53.6510   49.0600 C   0  0  0  0  0  0  0  0  0  0  0  0
   37.0370   51.7570   47.1530 C   0  0  0  0  0  0  0  0  0  0  0  0
   35.8110   51.4310   49.4340 C   0  0  0  0  0  0  0  0  0  0  0  0
   37.5250   53.1380   47.6680 C   0  0  0  0  0  0  0  0  0  0  0  0
   36.2610   52.8280   49.9430 C   0  0  0  0  0  0  0  0  0  0  0  0
  3  9  1  0  0  0  0
  9 11  1  0  0  0  0
  4 10  1  0  0  0  0
  9 10  1  0  0  0  0
 10 12  1  0  0  0  0
  5 11  1  0  0  0  0
  2 12  1  0  0  0  0
 12 14  1  0  0  0  0
  2 13  1  0  0  0  0
 11 13  1  0  0  0  0
 13 15  1  0  0  0  0
 14 16  4  0  0  0  0
  6 15  1  0  0  0  0
 16 18  4  0  0  0  0
 14 17  4  0  0  0  0
 17 21  4  0  0  0  0
  8 19  1  0  0  0  0
 19 23  1  0  0  0  0
 18 20  1  0  0  0  0
 20 26  1  0  0  0  0
 21 22  4  0  0  0  0
  1 22  1  0  0  0  0
 18 22  4  0  0  0  0
 23 25  1  0  0  0  0
  7 24  1  0  0  0  0
 19 24  1  0  0  0  0
  7 25  1  0  0  0  0
 26 28  4  0  0  0  0
 26 29  4  0  0  0  0
  8 27  1  0  0  0  0
 27 30  4  0  0  0  0
 27 31  4  0  0  0  0
 28 30  4  0  0  0  0
 29 31  4  0  0  0  0
M  END
$$$$
