9BHS
  PyMOL3.1          3D                             0

 82 90  0  0  0  0  0  0  0  0999 V2000
   -2.6960   -6.7170   31.7660 Cl  0  0  0  0  0  0  0  0  0  0  0  0
    1.7360  -13.8700   39.7720 Cl  0  0  0  0  0  0  0  0  0  0  0  0
    0.7670  -11.7650   34.0940 O   0  0  0  0  0  0  0  0  0  0  0  0
   -0.0980  -11.9290   33.2470 C   0  0  0  0  0  0  0  0  0  0  0  0
   -0.0510  -11.3220   32.0650 N   0  0  0  0  0  0  0  0  0  0  0  0
    1.0280  -10.3770   31.7490 C   0  0  0  0  0  0  0  0  0  0  0  0
    0.6210   -8.9350   31.9760 C   0  0  0  0  0  0  0  0  0  0  0  0
    1.5960   -7.9670   32.2090 C   0  0  0  0  0  0  0  0  0  0  0  0
    1.2700   -6.6240   32.2830 C   0  0  0  0  0  0  0  0  0  0  0  0
   -0.0390   -6.2520   32.1310 C   0  0  0  0  0  0  0  0  0  0  0  0
   -1.0320   -7.1950   31.9130 C   0  0  0  0  0  0  0  0  0  0  0  0
   -0.6990   -8.5330   31.8350 C   0  0  0  0  0  0  0  0  0  0  0  0
    1.4660  -10.5590   30.2980 C   0  0  0  0  0  0  0  0  0  0  0  0
    1.8420  -11.9910   30.0110 C   0  0  0  0  0  0  0  0  0  0  0  0
    1.0030  -12.6830   29.2580 N   0  0  0  0  0  0  0  0  0  0  0  0
    2.8630  -12.4720   30.4900 O   0  0  0  0  0  0  0  0  0  0  0  0
   -1.2810  -12.7950   33.5170 C   0  0  0  0  0  0  0  0  0  0  0  0
   -2.4020  -12.9690   32.7320 C   0  0  0  0  0  0  0  0  0  0  0  0
   -3.2480  -13.7920   33.3650 N   0  0  0  0  0  0  0  0  0  0  0  0
   -2.7180  -14.1840   34.5640 C   0  0  0  0  0  0  0  0  0  0  0  0
   -3.4500  -15.0180   35.5330 C   0  0  0  0  0  0  0  0  0  0  0  0
   -3.4650  -15.0700   35.4640 C   0  0  0  0  0  0  0  0  0  0  0  0
   -4.7950  -15.3430   35.5270 C   0  0  0  0  0  0  0  0  0  0  0  0
   -3.0430  -15.6160   36.6560 C   0  0  0  0  0  0  0  0  0  0  0  0
   -5.0050  -16.1720   36.5650 N   0  0  0  0  0  0  0  0  0  0  0  0
   -4.0900  -16.2700   37.1810 N   0  0  0  0  0  0  0  0  0  0  0  0
   -6.2690  -16.7590   36.9990 C   0  0  0  0  0  0  0  0  0  0  0  0
   -4.1260  -17.0440   38.4140 C   0  0  0  0  0  0  0  0  0  0  0  0
   -3.8700  -16.4190   37.2590 N   0  0  0  0  0  0  0  0  0  0  0  0
   -5.1890  -16.1860   36.4020 N   0  0  0  0  0  0  0  0  0  0  0  0
   -2.9380  -15.7210   36.6310 C   0  0  0  0  0  0  0  0  0  0  0  0
   -4.8060  -15.4610   35.3670 C   0  0  0  0  0  0  0  0  0  0  0  0
   -1.4830  -13.5820   34.7020 C   0  0  0  0  0  0  0  0  0  0  0  0
   -0.6950  -13.6160   35.9540 C   0  0  0  0  0  0  0  0  0  0  0  0
   -1.1060  -12.9410   37.1160 C   0  0  0  0  0  0  0  0  0  0  0  0
   -0.3670  -13.0200   38.2850 C   0  0  0  0  0  0  0  0  0  0  0  0
    0.7940  -13.7820   38.3020 C   0  0  0  0  0  0  0  0  0  0  0  0
    1.2320  -14.4640   37.1770 C   0  0  0  0  0  0  0  0  0  0  0  0
    0.4730  -14.3610   36.0330 C   0  0  0  0  0  0  0  0  0  0  0  0
    0.8630  -15.0490   34.9450 F   0  0  0  0  0  0  0  0  0  0  0  0
   -0.3490   -4.9130   32.0750 F   0  0  0  0  0  0  0  0  0  0  0  0
   22.8260   -0.6590   -3.7160 Cl  0  0  0  0  0  0  0  0  0  0  0  0
   25.6190    7.1280    4.5720 Cl  0  0  0  0  0  0  0  0  0  0  0  0
   21.9090    4.0680    0.8510 O   0  0  0  0  0  0  0  0  0  0  0  0
   21.5780    4.1830   -0.3290 C   0  0  0  0  0  0  0  0  0  0  0  0
   20.7600    3.3310   -0.9080 N   0  0  0  0  0  0  0  0  0  0  0  0
   20.2280    2.1710   -0.1950 C   0  0  0  0  0  0  0  0  0  0  0  0
   20.9480    0.8890   -0.5560 C   0  0  0  0  0  0  0  0  0  0  0  0
   20.9100   -0.2020    0.3140 C   0  0  0  0  0  0  0  0  0  0  0  0
   21.4560   -1.4240   -0.0450 C   0  0  0  0  0  0  0  0  0  0  0  0
   22.0430   -1.5480   -1.2790 C   0  0  0  0  0  0  0  0  0  0  0  0
   22.1050   -0.4780   -2.1570 C   0  0  0  0  0  0  0  0  0  0  0  0
   21.5560    0.7380   -1.7950 C   0  0  0  0  0  0  0  0  0  0  0  0
   18.7460    2.0080   -0.4970 C   0  0  0  0  0  0  0  0  0  0  0  0
   17.9610    3.2430   -0.1580 C   0  0  0  0  0  0  0  0  0  0  0  0
   17.4570    3.9160   -1.1840 N   0  0  0  0  0  0  0  0  0  0  0  0
   17.8520    3.6050    1.0120 O   0  0  0  0  0  0  0  0  0  0  0  0
   22.1320    5.2770   -1.1900 C   0  0  0  0  0  0  0  0  0  0  0  0
   21.9680    5.4450   -2.5480 C   0  0  0  0  0  0  0  0  0  0  0  0
   22.7010    6.5040   -2.9480 N   0  0  0  0  0  0  0  0  0  0  0  0
   23.3520    7.0590   -1.8660 C   0  0  0  0  0  0  0  0  0  0  0  0
   24.2830    8.1930   -1.9590 C   0  0  0  0  0  0  0  0  0  0  0  0
   24.2170    8.2460   -2.0030 C   0  0  0  0  0  0  0  0  0  0  0  0
   24.8660    8.7150   -3.0940 C   0  0  0  0  0  0  0  0  0  0  0  0
   24.8260    8.9840   -1.0030 C   0  0  0  0  0  0  0  0  0  0  0  0
   25.5070    9.8350   -2.7270 N   0  0  0  0  0  0  0  0  0  0  0  0
   25.5710    9.9240   -1.6070 N   0  0  0  0  0  0  0  0  0  0  0  0
   26.2940   10.7250   -3.5680 C   0  0  0  0  0  0  0  0  0  0  0  0
   26.3380   10.9910   -0.9810 C   0  0  0  0  0  0  0  0  0  0  0  0
   25.3790   10.0900   -1.4010 N   0  0  0  0  0  0  0  0  0  0  0  0
   25.4940    9.8480   -2.9570 N   0  0  0  0  0  0  0  0  0  0  0  0
   24.6410    9.0960   -0.9440 C   0  0  0  0  0  0  0  0  0  0  0  0
   24.6770    8.8360   -3.1860 C   0  0  0  0  0  0  0  0  0  0  0  0
   23.0300    6.3220   -0.7540 C   0  0  0  0  0  0  0  0  0  0  0  0
   23.6660    6.4690    0.5660 C   0  0  0  0  0  0  0  0  0  0  0  0
   24.9980    6.1160    0.7710 C   0  0  0  0  0  0  0  0  0  0  0  0
   25.6070    6.3230    2.0040 C   0  0  0  0  0  0  0  0  0  0  0  0
   24.8740    6.8820    3.0230 C   0  0  0  0  0  0  0  0  0  0  0  0
   23.5510    7.2430    2.8520 C   0  0  0  0  0  0  0  0  0  0  0  0
   22.9870    7.0190    1.6250 C   0  0  0  0  0  0  0  0  0  0  0  0
   21.6960    7.3410    1.4560 F   0  0  0  0  0  0  0  0  0  0  0  0
   22.4520   -2.7720   -1.6910 F   0  0  0  0  0  0  0  0  0  0  0  0
  3  4  2  0  0  0  0
  4  5  1  0  0  0  0
  5  6  1  0  0  0  0
  6  7  1  0  0  0  0
  7  8  2  0  0  0  0
  8  9  1  0  0  0  0
  9 10  2  0  0  0  0
  1 11  1  0  0  0  0
 10 11  1  0  0  0  0
  7 12  1  0  0  0  0
 11 12  2  0  0  0  0
  6 13  1  0  0  0  0
 13 14  1  0  0  0  0
 14 15  1  0  0  0  0
 14 16  2  0  0  0  0
  4 17  1  0  0  0  0
 17 18  2  0  0  0  0
 18 19  1  0  0  0  0
 19 20  1  0  0  0  0
 20 21  1  0  0  0  0
 20 22  1  0  0  0  0
 21 23  2  0  0  0  0
 22 24  2  0  0  0  0
 23 25  1  0  0  0  0
 24 26  1  0  0  0  0
 25 27  1  0  0  0  0
 26 28  1  0  0  0  0
 25 29  1  0  0  0  0
 26 30  1  0  0  0  0
 21 31  1  0  0  0  0
 29 31  2  0  0  0  0
 22 32  1  0  0  0  0
 30 32  2  0  0  0  0
 17 33  1  0  0  0  0
 20 33  2  0  0  0  0
 33 34  1  0  0  0  0
 34 35  1  0  0  0  0
 35 36  2  0  0  0  0
  2 37  1  0  0  0  0
 36 37  1  0  0  0  0
 37 38  2  0  0  0  0
 34 39  2  0  0  0  0
 38 39  1  0  0  0  0
 39 40  1  0  0  0  0
 10 41  1  0  0  0  0
 44 45  2  0  0  0  0
 45 46  1  0  0  0  0
 46 47  1  0  0  0  0
 47 48  1  0  0  0  0
 48 49  2  0  0  0  0
 49 50  1  0  0  0  0
 50 51  2  0  0  0  0
 42 52  1  0  0  0  0
 51 52  1  0  0  0  0
 48 53  1  0  0  0  0
 52 53  2  0  0  0  0
 47 54  1  0  0  0  0
 54 55  1  0  0  0  0
 55 56  1  0  0  0  0
 55 57  2  0  0  0  0
 45 58  1  0  0  0  0
 58 59  2  0  0  0  0
 59 60  1  0  0  0  0
 60 61  1  0  0  0  0
 61 62  1  0  0  0  0
 61 63  1  0  0  0  0
 62 64  2  0  0  0  0
 63 65  2  0  0  0  0
 64 66  1  0  0  0  0
 65 67  1  0  0  0  0
 66 68  1  0  0  0  0
 67 69  1  0  0  0  0
 66 70  1  0  0  0  0
 67 71  1  0  0  0  0
 62 72  1  0  0  0  0
 70 72  2  0  0  0  0
 63 73  1  0  0  0  0
 71 73  2  0  0  0  0
 58 74  1  0  0  0  0
 61 74  2  0  0  0  0
 74 75  1  0  0  0  0
 75 76  1  0  0  0  0
 76 77  2  0  0  0  0
 43 78  1  0  0  0  0
 77 78  1  0  0  0  0
 78 79  2  0  0  0  0
 75 80  2  0  0  0  0
 79 80  1  0  0  0  0
 80 81  1  0  0  0  0
 51 82  1  0  0  0  0
M  END
$$$$
