8XQO
  PyMOL3.1          3D                             0

 25 28  0  0  0  0  0  0  0  0999 V2000
  137.7940  144.0640  147.4460 N   0  0  0  0  0  0  0  0  0  0  0  0
  138.1710  149.7190  145.0330 C   0  0  0  0  0  0  0  0  0  0  0  0
  138.3180  148.3070  145.1980 O   0  0  0  0  0  0  0  0  0  0  0  0
  139.5140  147.7470  144.8430 C   0  0  0  0  0  0  0  0  0  0  0  0
  137.0400  143.2600  146.9180 O   0  0  0  0  0  0  0  0  0  0  0  0
  140.4840  148.3760  144.0730 C   0  0  0  0  0  0  0  0  0  0  0  0
  137.6370  144.5050  148.5740 O   0  0  0  0  0  0  0  0  0  0  0  0
  141.6680  147.6920  143.7930 C   0  0  0  0  0  0  0  0  0  0  0  0
  143.3840  144.1050  144.6180 O   0  0  0  0  0  0  0  0  0  0  0  0
  141.8740  146.4040  144.2950 C   0  0  0  0  0  0  0  0  0  0  0  0
  143.6960  141.9870  145.4630 O   0  0  0  0  0  0  0  0  0  0  0  0
  140.9080  145.7640  145.0830 C   0  0  0  0  0  0  0  0  0  0  0  0
  138.7070  140.8120  147.2780 O   0  0  0  0  0  0  0  0  0  0  0  0
  141.1010  144.4550  145.6020 C   0  0  0  0  0  0  0  0  0  0  0  0
  139.1260  142.2000  148.9390 O   0  0  0  0  0  0  0  0  0  0  0  0
  140.0880  143.8460  146.4020 C   0  0  0  0  0  0  0  0  0  0  0  0
  138.9010  144.5870  146.6560 C   0  0  0  0  0  0  0  0  0  0  0  0
  138.7330  145.8580  146.1300 C   0  0  0  0  0  0  0  0  0  0  0  0
  139.7210  146.4580  145.3530 C   0  0  0  0  0  0  0  0  0  0  0  0
  140.3000  142.5210  146.9100 C   0  0  0  0  0  0  0  0  0  0  0  0
  141.4920  141.8450  146.6410 C   0  0  0  0  0  0  0  0  0  0  0  0
  142.4630  142.4570  145.8470 C   0  0  0  0  0  0  0  0  0  0  0  0
  142.2830  143.7390  145.3490 C   0  0  0  0  0  0  0  0  0  0  0  0
  144.0890  142.8780  144.4180 C   0  0  0  0  0  0  0  0  0  0  0  0
  139.2970  141.7850  147.7790 C   0  0  0  0  0  0  0  0  0  0  0  0
  2  3  1  0  0  0  0
  3  4  1  0  0  0  0
  1  5  2  0  0  0  0
  4  6  1  0  0  0  0
  1  7  1  0  0  0  0
  6  8  2  0  0  0  0
  8 10  1  0  0  0  0
 10 12  2  0  0  0  0
 12 14  1  0  0  0  0
 14 16  1  0  0  0  0
  1 17  1  0  0  0  0
 16 17  1  0  0  0  0
 17 18  2  0  0  0  0
  4 19  2  0  0  0  0
 12 19  1  0  0  0  0
 18 19  1  0  0  0  0
 16 20  2  0  0  0  0
 20 21  1  0  0  0  0
 11 22  1  0  0  0  0
 21 22  2  0  0  0  0
  9 23  1  0  0  0  0
 14 23  2  0  0  0  0
 22 23  1  0  0  0  0
  9 24  1  0  0  0  0
 11 24  1  0  0  0  0
 13 25  2  0  0  0  0
 15 25  1  0  0  0  0
 20 25  1  0  0  0  0
M  END
$$$$
