8GKC
  PyMOL3.1          3D                             0

 33 37  0  0  0  0  0  0  0  0999 V2000
  148.9970   77.5680  129.0270 C   0  0  0  0  0  0  0  0  0  0  0  0
  149.0130   77.0220  130.4710 C   0  0  0  0  0  0  0  0  0  0  0  0
  147.8230   76.5960  131.0830 C   0  0  0  0  0  0  0  0  0  0  0  0
  147.8460   76.1030  132.3970 C   0  0  0  0  0  0  0  0  0  0  0  0
  149.0560   76.0360  133.0960 C   0  0  0  0  0  0  0  0  0  0  0  0
  150.2410   76.4610  132.4840 C   0  0  0  0  0  0  0  0  0  0  0  0
  150.2250   76.9570  131.1780 C   0  0  0  0  0  0  0  0  0  0  0  0
  151.5910   77.4150  130.5440 C   0  0  0  0  0  0  0  0  0  0  0  0
  152.0870   76.7790  129.6760 O   0  0  0  0  0  0  0  0  0  0  0  0
  152.2790   78.6400  131.0610 N   0  0  0  0  0  0  0  0  0  0  0  0
  153.6070   79.1600  130.5570 C   0  0  0  0  0  0  0  0  0  0  0  0
  154.6430   79.2950  131.6950 C   0  0  0  0  0  0  0  0  0  0  0  0
  154.0050   79.0820  133.0190 C   0  0  0  0  0  0  0  0  0  0  0  0
  152.8060   79.9460  133.1600 C   0  0  0  0  0  0  0  0  0  0  0  0
  151.7270   79.4980  132.1730 C   0  0  0  0  0  0  0  0  0  0  0  0
  155.4820   79.2140  133.5140 C   0  0  0  0  0  0  0  0  0  0  0  0
  156.2580   78.0720  133.7430 C   0  0  0  0  0  0  0  0  0  0  0  0
  157.5740   78.2010  134.1990 C   0  0  0  0  0  0  0  0  0  0  0  0
  158.1070   79.4700  134.4330 C   0  0  0  0  0  0  0  0  0  0  0  0
  157.3270   80.6060  134.2110 C   0  0  0  0  0  0  0  0  0  0  0  0
  156.0120   80.4800  133.7570 C   0  0  0  0  0  0  0  0  0  0  0  0
  159.5470   79.6350  134.9320 C   0  0  0  0  0  0  0  0  0  0  0  0
  160.6120   79.7690  135.3010 N   0  0  0  0  0  0  0  0  0  0  0  0
  149.0970   75.4960  134.5410 C   0  0  0  0  0  0  0  0  0  0  0  0
  149.2120   76.2270  135.6410 N   0  0  0  0  0  0  0  0  0  0  0  0
  149.2110   75.3840  136.6930 N   0  0  0  0  0  0  0  0  0  0  0  0
  149.0960   74.1500  136.2460 C   0  0  0  0  0  0  0  0  0  0  0  0
  149.0240   74.2000  134.9040 N   0  0  0  0  0  0  0  0  0  0  0  0
  149.0500   72.8770  137.1110 C   0  0  0  0  0  0  0  0  0  0  0  0
  146.5460   75.6320  133.1060 C   0  0  0  0  0  0  0  0  0  0  0  0
  145.7510   74.5100  132.4280 C   0  0  0  0  0  0  0  0  0  0  0  0
  144.4930   75.3820  132.4610 C   0  0  0  0  0  0  0  0  0  0  0  0
  145.2840   76.5070  133.1320 C   0  0  0  0  0  0  0  0  0  0  0  0
  1  2  1  0  0  0  0
  2  3  2  0  0  0  0
  3  4  1  0  0  0  0
  4  5  2  0  0  0  0
  5  6  1  0  0  0  0
  2  7  1  0  0  0  0
  6  7  2  0  0  0  0
  7  8  1  0  0  0  0
  8  9  2  0  0  0  0
  8 10  1  0  0  0  0
 10 11  1  0  0  0  0
 11 12  1  0  0  0  0
 12 13  1  0  0  0  0
 13 14  1  0  0  0  0
 10 15  1  0  0  0  0
 14 15  1  0  0  0  0
 13 16  1  0  0  0  0
 16 17  1  0  0  0  0
 17 18  2  0  0  0  0
 18 19  1  0  0  0  0
 19 20  2  0  0  0  0
 16 21  2  0  0  0  0
 20 21  1  0  0  0  0
 19 22  1  0  0  0  0
 22 23  3  0  0  0  0
  5 24  1  0  0  0  0
 24 25  2  0  0  0  0
 25 26  1  0  0  0  0
 26 27  2  0  0  0  0
 24 28  1  0  0  0  0
 27 28  1  0  0  0  0
 27 29  1  0  0  0  0
  4 30  1  0  0  0  0
 30 31  1  0  0  0  0
 31 32  1  0  0  0  0
 30 33  1  0  0  0  0
 32 33  1  0  0  0  0
M  END
$$$$
