8W8A
  PyMOL3.1          3D                             0

 16 17  0  0  0  0  0  0  0  0999 V2000
  119.0610  123.6650  151.8620 O   0  0  0  0  0  0  0  0  0  0  0  0
  121.0240  123.2240  152.9850 N   0  0  0  0  0  0  0  0  0  0  0  0
  120.7160  122.5920  150.6620 N   0  0  0  0  0  0  0  0  0  0  0  0
  122.0510  124.6750  155.5540 C   0  0  0  0  0  0  0  0  0  0  0  0
  120.7990  125.0610  154.7170 C   0  0  0  0  0  0  0  0  0  0  0  0
  120.1380  123.9090  153.9500 C   0  0  0  0  0  0  0  0  0  0  0  0
  121.6690  124.5330  157.0490 C   0  0  0  0  0  0  0  0  0  0  0  0
  123.1960  125.6330  155.3920 C   0  0  0  0  0  0  0  0  0  0  0  0
  118.9010  124.3350  153.0860 C   0  0  0  0  0  0  0  0  0  0  0  0
  122.4140  123.4230  157.7820 C   0  0  0  0  0  0  0  0  0  0  0  0
  123.5070  126.5360  156.4130 C   0  0  0  0  0  0  0  0  0  0  0  0
  123.9800  125.6660  154.2440 C   0  0  0  0  0  0  0  0  0  0  0  0
  120.3300  123.1370  151.8400 C   0  0  0  0  0  0  0  0  0  0  0  0
  124.5610  127.4330  156.2910 C   0  0  0  0  0  0  0  0  0  0  0  0
  125.0360  126.5640  154.1190 C   0  0  0  0  0  0  0  0  0  0  0  0
  125.3360  127.4550  155.1400 C   0  0  0  0  0  0  0  0  0  0  0  0
  4  5  1  0  0  0  0
  2  6  1  0  0  0  0
  5  6  1  0  0  0  0
  4  7  1  0  0  0  0
  4  8  1  0  0  0  0
  1  9  1  0  0  0  0
  6  9  1  0  0  0  0
  7 10  1  0  0  0  0
  8 11  2  0  0  0  0
  8 12  1  0  0  0  0
  1 13  1  0  0  0  0
  2 13  1  0  0  0  0
  3 13  2  0  0  0  0
 11 14  1  0  0  0  0
 12 15  2  0  0  0  0
 14 16  2  0  0  0  0
 15 16  1  0  0  0  0
M  END
$$$$
