7S8P
  PyMOL3.1          3D                             0

 26 29  0  0  0  0  0  0  0  0999 V2000
  127.2880   99.5470   87.0020 O   0  0  0  0  0  0  0  0  0  0  0  0
  127.7570   98.4010   87.1170 C   0  0  0  0  0  0  0  0  0  0  0  0
  126.8790   97.2510   87.5820 C   0  0  0  0  0  0  0  0  0  0  0  0
  125.6880   97.1490   86.7460 N   0  0  0  0  0  0  0  0  0  0  0  0
  125.7780   96.7610   85.3530 C   0  0  0  0  0  0  0  0  0  0  0  0
  124.5510   96.6170   84.4690 C   0  0  0  0  0  0  0  0  0  0  0  0
  124.8420   95.4880   83.5050 C   0  0  0  0  0  0  0  0  0  0  0  0
  123.6990   95.1310   82.5980 C   0  0  0  0  0  0  0  0  0  0  0  0
  122.4850   94.8710   83.4080 C   0  0  0  0  0  0  0  0  0  0  0  0
  122.1580   95.9840   84.4030 C   0  0  0  0  0  0  0  0  0  0  0  0
  120.9800   95.4760   85.3150 C   0  0  0  0  0  0  0  0  0  0  0  0
  123.3200   96.4170   85.2760 C   0  0  0  0  0  0  0  0  0  0  0  0
  123.4160   96.3400   81.7540 C   0  0  0  0  0  0  0  0  0  0  0  0
  123.0550   97.5840   82.6600 C   0  0  0  0  0  0  0  0  0  0  0  0
  121.7510   97.2280   83.5320 C   0  0  0  0  0  0  0  0  0  0  0  0
  122.7820   98.7530   81.8250 C   0  0  0  0  0  0  0  0  0  0  0  0
  124.2670   97.8470   83.6240 C   0  0  0  0  0  0  0  0  0  0  0  0
  126.8310   96.5320   84.8810 O   0  0  0  0  0  0  0  0  0  0  0  0
  126.4220   97.4100   89.0350 C   0  0  0  0  0  0  0  0  0  0  0  0
  127.4800   97.7000   90.0840 C   0  0  0  0  0  0  0  0  0  0  0  0
  128.7210   97.0870   90.0480 C   0  0  0  0  0  0  0  0  0  0  0  0
  129.6530   97.3870   91.0190 C   0  0  0  0  0  0  0  0  0  0  0  0
  129.3260   98.2890   92.0180 C   0  0  0  0  0  0  0  0  0  0  0  0
  128.0850   98.8970   92.0570 C   0  0  0  0  0  0  0  0  0  0  0  0
  127.1610   98.6000   91.0860 C   0  0  0  0  0  0  0  0  0  0  0  0
  128.9540   98.1820   86.8280 O   0  0  0  0  0  0  0  0  0  0  0  0
  1  2  4  0  0  0  0
  2  3  1  0  0  0  0
  2 26  4  0  0  0  0
  3  4  1  0  0  0  0
  3 19  1  0  0  0  0
  4  5  1  0  0  0  0
  5  6  1  0  0  0  0
  5 18  2  0  0  0  0
  6  7  1  0  0  0  0
  6 12  1  0  0  0  0
  7  8  1  0  0  0  0
  8  9  1  0  0  0  0
  9 10  1  0  0  0  0
 10 11  1  0  0  0  0
 10 12  1  0  0  0  0
 10 15  1  0  0  0  0
  8 13  1  0  0  0  0
 13 14  1  0  0  0  0
 14 16  1  0  0  0  0
 14 15  1  0  0  0  0
  6 17  1  0  0  0  0
 14 17  1  0  0  0  0
 19 20  1  0  0  0  0
 20 21  4  0  0  0  0
 20 25  4  0  0  0  0
 21 22  4  0  0  0  0
 22 23  4  0  0  0  0
 23 24  4  0  0  0  0
 24 25  4  0  0  0  0
M  END
$$$$
