8QOJ
  PyMOL3.1          3D                             0

504528  0  0  0  0  0  0  0  0999 V2000
  126.7320  143.9720   96.4230 C   0  0  0  0  0  0  0  0  0  0  0  0
  126.1440  144.8520   95.4970 C   0  0  0  0  0  0  0  0  0  0  0  0
  127.0670  142.7030   96.0580 C   0  0  0  0  0  0  0  0  0  0  0  0
  126.8730  140.6060   93.0060 C   0  0  0  0  0  0  0  0  0  0  0  0
  132.1220  139.4220   95.2040 C   0  0  0  0  0  0  0  0  0  0  0  0
  131.5080  140.2510   94.0820 C   0  0  0  0  0  0  0  0  0  0  0  0
  131.3140  139.5730   96.4880 C   0  0  0  0  0  0  0  0  0  0  0  0
  130.0140  139.9710   93.9320 C   0  0  0  0  0  0  0  0  0  0  0  0
  126.2850  141.5680   92.1740 C   0  0  0  0  0  0  0  0  0  0  0  0
  127.1520  140.9310   94.3030 C   0  0  0  0  0  0  0  0  0  0  0  0
  125.8970  144.4440   94.2180 C   0  0  0  0  0  0  0  0  0  0  0  0
  126.8300  142.2400   94.7450 C   0  0  0  0  0  0  0  0  0  0  0  0
  126.2370  143.1260   93.8130 C   0  0  0  0  0  0  0  0  0  0  0  0
  127.7950  139.8900   95.1980 C   0  0  0  0  0  0  0  0  0  0  0  0
  129.3110  140.1360   95.2820 C   0  0  0  0  0  0  0  0  0  0  0  0
  125.9790  141.1940   90.7460 C   0  0  0  0  0  0  0  0  0  0  0  0
  125.2700  145.3780   93.2270 C   0  0  0  0  0  0  0  0  0  0  0  0
  125.9740  142.7700   92.5430 N   0  0  0  0  0  0  0  0  0  0  0  0
  129.8940  139.2980   96.3140 N   0  0  0  0  0  0  0  0  0  0  0  0
  127.4930  138.5900   94.7660 O   0  0  0  0  0  0  0  0  0  0  0  0
  125.1650  142.0590   90.1580 F   0  0  0  0  0  0  0  0  0  0  0  0
  127.0990  141.1240   90.0160 F   0  0  0  0  0  0  0  0  0  0  0  0
  125.4040  139.9860   90.6870 F   0  0  0  0  0  0  0  0  0  0  0  0
  126.0570  145.5660   92.1600 F   0  0  0  0  0  0  0  0  0  0  0  0
  125.0470  146.5880   93.7480 F   0  0  0  0  0  0  0  0  0  0  0  0
  124.1060  144.9230   92.7570 F   0  0  0  0  0  0  0  0  0  0  0  0
  125.9280  145.7110   95.7780 H   0  0  0  0  0  0  0  0  0  0  0  0
  126.8940  144.2670   97.2900 H   0  0  0  0  0  0  0  0  0  0  0  0
  127.4560  142.1430   96.6910 H   0  0  0  0  0  0  0  0  0  0  0  0
  127.0680  139.7610   92.6710 H   0  0  0  0  0  0  0  0  0  0  0  0
  127.4200  139.9520   96.0900 H   0  0  0  0  0  0  0  0  0  0  0  0
  127.8130  138.0230   95.3130 H   0  0  0  0  0  0  0  0  0  0  0  0
  129.4350  141.0520   95.5750 H   0  0  0  0  0  0  0  0  0  0  0  0
  129.8750  139.0660   93.6130 H   0  0  0  0  0  0  0  0  0  0  0  0
  129.6430  140.5670   93.2640 H   0  0  0  0  0  0  0  0  0  0  0  0
  131.6540  141.1970   94.2380 H   0  0  0  0  0  0  0  0  0  0  0  0
  131.9530  140.0390   93.2480 H   0  0  0  0  0  0  0  0  0  0  0  0
  132.1450  138.4870   94.9470 H   0  0  0  0  0  0  0  0  0  0  0  0
  133.0420  139.6890   95.3570 H   0  0  0  0  0  0  0  0  0  0  0  0
  131.6550  138.9850   97.1800 H   0  0  0  0  0  0  0  0  0  0  0  0
  131.4030  140.4790   96.8220 H   0  0  0  0  0  0  0  0  0  0  0  0
  129.4870  139.4620   97.0880 H   0  0  0  0  0  0  0  0  0  0  0  0
  118.9890  133.4360   96.4320 C   0  0  0  0  0  0  0  0  0  0  0  0
  117.9340  133.3570   95.5070 C   0  0  0  0  0  0  0  0  0  0  0  0
  120.2590  133.0980   96.0680 C   0  0  0  0  0  0  0  0  0  0  0  0
  121.9850  131.8830   93.0200 C   0  0  0  0  0  0  0  0  0  0  0  0
  125.6390  135.8450   95.2000 C   0  0  0  0  0  0  0  0  0  0  0  0
  124.6200  135.7220   94.0730 C   0  0  0  0  0  0  0  0  0  0  0  0
  125.0910  135.2350   96.4860 C   0  0  0  0  0  0  0  0  0  0  0  0
  124.1080  134.2900   93.9320 C   0  0  0  0  0  0  0  0  0  0  0  0
  120.8590  131.8440   92.1880 C   0  0  0  0  0  0  0  0  0  0  0  0
  121.8410  132.2900   94.3160 C   0  0  0  0  0  0  0  0  0  0  0  0
  118.1670  132.9360   94.2290 C   0  0  0  0  0  0  0  0  0  0  0  0
  120.5440  132.6600   94.7570 C   0  0  0  0  0  0  0  0  0  0  0  0
  119.4800  132.5780   93.8250 C   0  0  0  0  0  0  0  0  0  0  0  0
  123.0640  132.3370   95.2100 C   0  0  0  0  0  0  0  0  0  0  0  0
  123.6060  133.7750   95.2830 C   0  0  0  0  0  0  0  0  0  0  0  0
  121.0330  131.3890   90.7620 C   0  0  0  0  0  0  0  0  0  0  0  0
  117.0450  132.8500   93.2380 C   0  0  0  0  0  0  0  0  0  0  0  0
  119.6590  132.1700   92.5560 N   0  0  0  0  0  0  0  0  0  0  0  0
  124.6160  133.8690   96.3210 N   0  0  0  0  0  0  0  0  0  0  0  0
  124.0400  131.4230   94.7850 O   0  0  0  0  0  0  0  0  0  0  0  0
  119.8780  131.1290   90.1680 F   0  0  0  0  0  0  0  0  0  0  0  0
  121.6680  132.3170   90.0350 F   0  0  0  0  0  0  0  0  0  0  0  0
  121.7800  130.2800   90.7080 F   0  0  0  0  0  0  0  0  0  0  0  0
  117.2780  133.6090   92.1610 F   0  0  0  0  0  0  0  0  0  0  0  0
  115.8860  133.2730   93.7520 F   0  0  0  0  0  0  0  0  0  0  0  0
  116.8520  131.6080   92.7860 F   0  0  0  0  0  0  0  0  0  0  0  0
  117.0800  133.5940   95.7870 H   0  0  0  0  0  0  0  0  0  0  0  0
  118.8130  133.7260   97.2980 H   0  0  0  0  0  0  0  0  0  0  0  0
  120.9370  133.1620   96.7010 H   0  0  0  0  0  0  0  0  0  0  0  0
  122.8160  131.6330   92.6860 H   0  0  0  0  0  0  0  0  0  0  0  0
  122.8240  132.0490   96.1050 H   0  0  0  0  0  0  0  0  0  0  0  0
  124.6430  131.3490   95.3790 H   0  0  0  0  0  0  0  0  0  0  0  0
  122.8720  134.3420   95.5670 H   0  0  0  0  0  0  0  0  0  0  0  0
  123.3830  134.2640   93.2890 H   0  0  0  0  0  0  0  0  0  0  0  0
  124.8150  133.7250   93.5830 H   0  0  0  0  0  0  0  0  0  0  0  0
  125.0020  136.0210   93.2340 H   0  0  0  0  0  0  0  0  0  0  0  0
  123.8690  136.3080   94.2570 H   0  0  0  0  0  0  0  0  0  0  0  0
  125.8500  136.7790   95.3530 H   0  0  0  0  0  0  0  0  0  0  0  0
  126.4700  135.4100   94.9540 H   0  0  0  0  0  0  0  0  0  0  0  0
  124.3620  135.7700   96.8370 H   0  0  0  0  0  0  0  0  0  0  0  0
  125.7850  135.2300   97.1630 H   0  0  0  0  0  0  0  0  0  0  0  0
  124.2650  133.6060   97.0950 H   0  0  0  0  0  0  0  0  0  0  0  0
  124.2430  121.4550   96.4200 C   0  0  0  0  0  0  0  0  0  0  0  0
  123.7800  120.5050   95.4940 C   0  0  0  0  0  0  0  0  0  0  0  0
  125.1790  122.3770   96.0590 C   0  0  0  0  0  0  0  0  0  0  0  0
  127.1150  123.2450   93.0170 C   0  0  0  0  0  0  0  0  0  0  0  0
  125.5040  128.3890   95.1870 C   0  0  0  0  0  0  0  0  0  0  0  0
  125.0800  127.4320   94.0790 C   0  0  0  0  0  0  0  0  0  0  0  0
  125.7780  127.6240   96.4770 C   0  0  0  0  0  0  0  0  0  0  0  0
  126.0620  126.2710   93.9350 C   0  0  0  0  0  0  0  0  0  0  0  0
  126.5800  122.2540   92.1840 C   0  0  0  0  0  0  0  0  0  0  0  0
  126.6850  123.3290   94.3120 C   0  0  0  0  0  0  0  0  0  0  0  0
  124.2650  120.4900   94.2180 C   0  0  0  0  0  0  0  0  0  0  0  0
  125.7080  122.3990   94.7490 C   0  0  0  0  0  0  0  0  0  0  0  0
  125.2410  121.4400   93.8170 C   0  0  0  0  0  0  0  0  0  0  0  0
  127.2600  124.4080   95.2080 C   0  0  0  0  0  0  0  0  0  0  0  0
  126.2840  125.5940   95.2900 C   0  0  0  0  0  0  0  0  0  0  0  0
  127.0660  122.1710   90.7600 C   0  0  0  0  0  0  0  0  0  0  0  0
  123.7740  119.4770   93.2280 C   0  0  0  0  0  0  0  0  0  0  0  0
  125.6900  121.3860   92.5500 N   0  0  0  0  0  0  0  0  0  0  0  0
  126.7220  126.5280   96.3110 N   0  0  0  0  0  0  0  0  0  0  0  0
  128.5370  124.8000   94.7780 O   0  0  0  0  0  0  0  0  0  0  0  0
  126.7640  121.0160   90.1870 F   0  0  0  0  0  0  0  0  0  0  0  0
  126.5400  123.1500   90.0140 F   0  0  0  0  0  0  0  0  0  0  0  0
  128.3960  122.3180   90.7060 F   0  0  0  0  0  0  0  0  0  0  0  0
  123.2350  120.0620   92.1510 F   0  0  0  0  0  0  0  0  0  0  0  0
  122.8250  118.6900   93.7420 F   0  0  0  0  0  0  0  0  0  0  0  0
  124.7490  118.6850   92.7740 F   0  0  0  0  0  0  0  0  0  0  0  0
  123.1410  119.8890   95.7730 H   0  0  0  0  0  0  0  0  0  0  0  0
  123.9010  121.4510   97.2850 H   0  0  0  0  0  0  0  0  0  0  0  0
  125.4660  122.9950   96.6910 H   0  0  0  0  0  0  0  0  0  0  0  0
  127.7520  123.8350   92.6850 H   0  0  0  0  0  0  0  0  0  0  0  0
  127.3930  124.0520   96.1000 H   0  0  0  0  0  0  0  0  0  0  0  0
  128.8770  125.3370   95.3420 H   0  0  0  0  0  0  0  0  0  0  0  0
  125.4320  125.2420   95.5930 H   0  0  0  0  0  0  0  0  0  0  0  0
  126.9130  126.5940   93.6020 H   0  0  0  0  0  0  0  0  0  0  0  0
  125.7210  125.6450   93.2770 H   0  0  0  0  0  0  0  0  0  0  0  0
  124.1870  127.0910   94.2460 H   0  0  0  0  0  0  0  0  0  0  0  0
  125.0380  127.9140   93.2390 H   0  0  0  0  0  0  0  0  0  0  0  0
  126.3050  128.8670   94.9200 H   0  0  0  0  0  0  0  0  0  0  0  0
  124.8190  129.0590   95.3360 H   0  0  0  0  0  0  0  0  0  0  0  0
  126.1190  128.2190   97.1630 H   0  0  0  0  0  0  0  0  0  0  0  0
  124.9480  127.2530   96.8160 H   0  0  0  0  0  0  0  0  0  0  0  0
  126.7860  126.1010   97.0890 H   0  0  0  0  0  0  0  0  0  0  0  0
  137.2800  120.0040   96.4390 C   0  0  0  0  0  0  0  0  0  0  0  0
  137.8550  119.1150   95.5140 C   0  0  0  0  0  0  0  0  0  0  0  0
  136.9550  121.2750   96.0700 C   0  0  0  0  0  0  0  0  0  0  0  0
  137.1490  123.3560   93.0080 C   0  0  0  0  0  0  0  0  0  0  0  0
  131.9150  124.5490   95.2910 C   0  0  0  0  0  0  0  0  0  0  0  0
  132.5150  123.7270   94.1570 C   0  0  0  0  0  0  0  0  0  0  0  0
  132.7540  124.4100   96.5580 C   0  0  0  0  0  0  0  0  0  0  0  0
  134.0030  124.0170   93.9770 C   0  0  0  0  0  0  0  0  0  0  0  0
  137.7230  122.3860   92.1770 C   0  0  0  0  0  0  0  0  0  0  0  0
  136.8750  123.0400   94.3090 C   0  0  0  0  0  0  0  0  0  0  0  0
  138.0970  119.5150   94.2310 C   0  0  0  0  0  0  0  0  0  0  0  0
  137.1870  121.7300   94.7540 C   0  0  0  0  0  0  0  0  0  0  0  0
  137.7670  120.8340   93.8230 C   0  0  0  0  0  0  0  0  0  0  0  0
  136.2470  124.0900   95.2040 C   0  0  0  0  0  0  0  0  0  0  0  0
  134.7310  123.8500   95.3120 C   0  0  0  0  0  0  0  0  0  0  0  0
  138.0230  122.7520   90.7460 C   0  0  0  0  0  0  0  0  0  0  0  0
  138.7100  118.5720   93.2400 C   0  0  0  0  0  0  0  0  0  0  0  0
  138.0250  121.1820   92.5500 N   0  0  0  0  0  0  0  0  0  0  0  0
  134.1680  124.6910   96.3530 N   0  0  0  0  0  0  0  0  0  0  0  0
  136.5460  125.3860   94.7560 O   0  0  0  0  0  0  0  0  0  0  0  0
  138.8370  121.8850   90.1610 F   0  0  0  0  0  0  0  0  0  0  0  0
  136.9000  122.8130   90.0200 F   0  0  0  0  0  0  0  0  0  0  0  0
  138.5940  123.9610   90.6770 F   0  0  0  0  0  0  0  0  0  0  0  0
  137.9140  118.3810   92.1810 F   0  0  0  0  0  0  0  0  0  0  0  0
  138.9320  117.3630   93.7670 F   0  0  0  0  0  0  0  0  0  0  0  0
  139.8740  119.0170   92.7580 F   0  0  0  0  0  0  0  0  0  0  0  0
  138.0650  118.2550   95.7960 H   0  0  0  0  0  0  0  0  0  0  0  0
  137.1210  119.7140   97.3090 H   0  0  0  0  0  0  0  0  0  0  0  0
  136.5750  121.8400   96.7030 H   0  0  0  0  0  0  0  0  0  0  0  0
  136.9590  124.2020   92.6710 H   0  0  0  0  0  0  0  0  0  0  0  0
  136.6360  124.0350   96.0900 H   0  0  0  0  0  0  0  0  0  0  0  0
  136.4500  125.9380   95.3950 H   0  0  0  0  0  0  0  0  0  0  0  0
  134.6090  122.9340   95.6080 H   0  0  0  0  0  0  0  0  0  0  0  0
  134.3810  123.4060   93.3260 H   0  0  0  0  0  0  0  0  0  0  0  0
  134.1200  124.9130   93.6240 H   0  0  0  0  0  0  0  0  0  0  0  0
  132.3790  122.7790   94.3130 H   0  0  0  0  0  0  0  0  0  0  0  0
  132.0520  123.9360   93.3310 H   0  0  0  0  0  0  0  0  0  0  0  0
  131.0110  124.2480   95.4720 H   0  0  0  0  0  0  0  0  0  0  0  0
  131.8500  125.4820   95.0360 H   0  0  0  0  0  0  0  0  0  0  0  0
  132.6720  123.5170   96.9260 H   0  0  0  0  0  0  0  0  0  0  0  0
  132.4230  125.0220   97.2340 H   0  0  0  0  0  0  0  0  0  0  0  0
  134.5920  124.5310   97.1190 H   0  0  0  0  0  0  0  0  0  0  0  0
  145.0170  130.5610   96.4300 C   0  0  0  0  0  0  0  0  0  0  0  0
  146.0720  130.6400   95.5040 C   0  0  0  0  0  0  0  0  0  0  0  0
  143.7480  130.9010   96.0670 C   0  0  0  0  0  0  0  0  0  0  0  0
  142.0220  132.1220   93.0200 C   0  0  0  0  0  0  0  0  0  0  0  0
  138.3730  128.1540   95.1990 C   0  0  0  0  0  0  0  0  0  0  0  0
  139.3880  128.2840   94.0700 C   0  0  0  0  0  0  0  0  0  0  0  0
  138.9190  128.7660   96.4850 C   0  0  0  0  0  0  0  0  0  0  0  0
  139.8950  129.7170   93.9300 C   0  0  0  0  0  0  0  0  0  0  0  0
  143.1480  132.1600   92.1880 C   0  0  0  0  0  0  0  0  0  0  0  0
  142.1660  131.7130   94.3160 C   0  0  0  0  0  0  0  0  0  0  0  0
  145.8390  131.0620   94.2260 C   0  0  0  0  0  0  0  0  0  0  0  0
  143.4620  131.3420   94.7560 C   0  0  0  0  0  0  0  0  0  0  0  0
  144.5260  131.4220   93.8240 C   0  0  0  0  0  0  0  0  0  0  0  0
  140.9430  131.6670   95.2100 C   0  0  0  0  0  0  0  0  0  0  0  0
  140.3990  130.2300   95.2810 C   0  0  0  0  0  0  0  0  0  0  0  0
  142.9740  132.6170   90.7620 C   0  0  0  0  0  0  0  0  0  0  0  0
  146.9610  131.1480   93.2360 C   0  0  0  0  0  0  0  0  0  0  0  0
  144.3470  131.8320   92.5550 N   0  0  0  0  0  0  0  0  0  0  0  0
  139.3900  130.1340   96.3200 N   0  0  0  0  0  0  0  0  0  0  0  0
  139.9670  132.5820   94.7850 O   0  0  0  0  0  0  0  0  0  0  0  0
  144.1230  132.9410   90.1880 F   0  0  0  0  0  0  0  0  0  0  0  0
  142.3970  131.6650   90.0180 F   0  0  0  0  0  0  0  0  0  0  0  0
  142.1720  133.6880   90.7050 F   0  0  0  0  0  0  0  0  0  0  0  0
  146.7260  130.3900   92.1580 F   0  0  0  0  0  0  0  0  0  0  0  0
  148.1190  130.7230   93.7490 F   0  0  0  0  0  0  0  0  0  0  0  0
  147.1540  132.3900   92.7840 F   0  0  0  0  0  0  0  0  0  0  0  0
  146.9260  130.4010   95.7830 H   0  0  0  0  0  0  0  0  0  0  0  0
  145.1930  130.2710   97.2960 H   0  0  0  0  0  0  0  0  0  0  0  0
  143.0690  130.8380   96.6990 H   0  0  0  0  0  0  0  0  0  0  0  0
  141.1910  132.3730   92.6870 H   0  0  0  0  0  0  0  0  0  0  0  0
  141.1830  131.9540   96.1040 H   0  0  0  0  0  0  0  0  0  0  0  0
  139.3370  132.6160   95.3540 H   0  0  0  0  0  0  0  0  0  0  0  0
  141.1330  129.6610   95.5630 H   0  0  0  0  0  0  0  0  0  0  0  0
  140.6180  129.7460   93.2850 H   0  0  0  0  0  0  0  0  0  0  0  0
  139.1850  130.2810   93.5850 H   0  0  0  0  0  0  0  0  0  0  0  0
  139.0040  127.9850   93.2300 H   0  0  0  0  0  0  0  0  0  0  0  0
  140.1410  127.6990   94.2500 H   0  0  0  0  0  0  0  0  0  0  0  0
  138.1690  127.2180   95.3520 H   0  0  0  0  0  0  0  0  0  0  0  0
  137.5380  128.5840   94.9560 H   0  0  0  0  0  0  0  0  0  0  0  0
  138.2460  128.7570   97.1830 H   0  0  0  0  0  0  0  0  0  0  0  0
  139.6620  128.2320   96.8070 H   0  0  0  0  0  0  0  0  0  0  0  0
  139.7420  130.3970   97.0940 H   0  0  0  0  0  0  0  0  0  0  0  0
  139.7440  142.5440   96.4210 C   0  0  0  0  0  0  0  0  0  0  0  0
  140.2080  143.4960   95.4970 C   0  0  0  0  0  0  0  0  0  0  0  0
  138.8100  141.6200   96.0570 C   0  0  0  0  0  0  0  0  0  0  0  0
  136.8830  140.7510   93.0110 C   0  0  0  0  0  0  0  0  0  0  0  0
  138.5100  135.6140   95.1880 C   0  0  0  0  0  0  0  0  0  0  0  0
  138.9370  136.5770   94.0860 C   0  0  0  0  0  0  0  0  0  0  0  0
  138.2150  136.3740   96.4770 C   0  0  0  0  0  0  0  0  0  0  0  0
  137.9470  137.7300   93.9330 C   0  0  0  0  0  0  0  0  0  0  0  0
  137.4180  141.7430   92.1800 C   0  0  0  0  0  0  0  0  0  0  0  0
  137.3100  140.6670   94.3070 C   0  0  0  0  0  0  0  0  0  0  0  0
  139.7250  143.5100   94.2190 C   0  0  0  0  0  0  0  0  0  0  0  0
  138.2850  141.5990   94.7460 C   0  0  0  0  0  0  0  0  0  0  0  0
  138.7520  142.5590   93.8160 C   0  0  0  0  0  0  0  0  0  0  0  0
  136.7350  139.5880   95.2020 C   0  0  0  0  0  0  0  0  0  0  0  0
  137.7130  138.4030   95.2870 C   0  0  0  0  0  0  0  0  0  0  0  0
  136.9340  141.8260   90.7540 C   0  0  0  0  0  0  0  0  0  0  0  0
  140.2160  144.5240   93.2300 C   0  0  0  0  0  0  0  0  0  0  0  0
  138.3060  142.6120   92.5480 N   0  0  0  0  0  0  0  0  0  0  0  0
  137.2680  137.4660   96.3020 N   0  0  0  0  0  0  0  0  0  0  0  0
  135.4610  139.1910   94.7680 O   0  0  0  0  0  0  0  0  0  0  0  0
  137.2370  142.9820   90.1820 F   0  0  0  0  0  0  0  0  0  0  0  0
  137.4630  140.8480   90.0090 F   0  0  0  0  0  0  0  0  0  0  0  0
  135.6050  141.6780   90.6980 F   0  0  0  0  0  0  0  0  0  0  0  0
  140.7560  143.9400   92.1530 F   0  0  0  0  0  0  0  0  0  0  0  0
  141.1650  145.3110   93.7450 F   0  0  0  0  0  0  0  0  0  0  0  0
  139.2410  145.3160   92.7760 F   0  0  0  0  0  0  0  0  0  0  0  0
  140.8450  144.1120   95.7760 H   0  0  0  0  0  0  0  0  0  0  0  0
  140.0850  142.5480   97.2870 H   0  0  0  0  0  0  0  0  0  0  0  0
  138.5230  141.0020   96.6890 H   0  0  0  0  0  0  0  0  0  0  0  0
  136.2470  140.1600   92.6770 H   0  0  0  0  0  0  0  0  0  0  0  0
  136.5980  139.9430   96.0930 H   0  0  0  0  0  0  0  0  0  0  0  0
  135.1140  138.6650   95.3390 H   0  0  0  0  0  0  0  0  0  0  0  0
  138.5620  138.7570   95.5970 H   0  0  0  0  0  0  0  0  0  0  0  0
  137.1000  137.4010   93.5940 H   0  0  0  0  0  0  0  0  0  0  0  0
  138.2890  138.3580   93.2780 H   0  0  0  0  0  0  0  0  0  0  0  0
  139.8240  136.9250   94.2640 H   0  0  0  0  0  0  0  0  0  0  0  0
  138.9940  136.0960   93.2460 H   0  0  0  0  0  0  0  0  0  0  0  0
  139.2140  134.9680   95.3500 H   0  0  0  0  0  0  0  0  0  0  0  0
  137.7290  135.1090   94.9130 H   0  0  0  0  0  0  0  0  0  0  0  0
  139.0310  136.7370   96.8560 H   0  0  0  0  0  0  0  0  0  0  0  0
  137.8490  135.7640   97.1360 H   0  0  0  0  0  0  0  0  0  0  0  0
  137.1950  137.8910   97.0800 H   0  0  0  0  0  0  0  0  0  0  0  0
  124.2510  142.5400  167.5790 C   0  0  0  0  0  0  0  0  0  0  0  0
  123.7840  143.4920  168.5010 C   0  0  0  0  0  0  0  0  0  0  0  0
  125.1870  141.6190  167.9450 C   0  0  0  0  0  0  0  0  0  0  0  0
  127.1110  140.7580  170.9960 C   0  0  0  0  0  0  0  0  0  0  0  0
  125.4840  135.6200  168.7780 C   0  0  0  0  0  0  0  0  0  0  0  0
  125.0970  136.5550  169.9180 C   0  0  0  0  0  0  0  0  0  0  0  0
  125.7480  136.4090  167.5010 C   0  0  0  0  0  0  0  0  0  0  0  0
  126.0950  137.7010  170.0670 C   0  0  0  0  0  0  0  0  0  0  0  0
  126.5730  141.7500  171.8250 C   0  0  0  0  0  0  0  0  0  0  0  0
  126.6870  140.6720  169.7000 C   0  0  0  0  0  0  0  0  0  0  0  0
  124.2650  143.5100  169.7790 C   0  0  0  0  0  0  0  0  0  0  0  0
  125.7100  141.6000  169.2570 C   0  0  0  0  0  0  0  0  0  0  0  0
  125.2400  142.5610  170.1860 C   0  0  0  0  0  0  0  0  0  0  0  0
  127.2650  139.5920  168.8070 C   0  0  0  0  0  0  0  0  0  0  0  0
  126.2900  138.4060  168.7230 C   0  0  0  0  0  0  0  0  0  0  0  0
  127.0540  141.8360  173.2510 C   0  0  0  0  0  0  0  0  0  0  0  0
  123.7690  144.5230  170.7660 C   0  0  0  0  0  0  0  0  0  0  0  0
  125.6830  142.6170  171.4540 N   0  0  0  0  0  0  0  0  0  0  0  0
  126.7070  137.4910  167.6770 N   0  0  0  0  0  0  0  0  0  0  0  0
  128.5400  139.1990  169.2440 O   0  0  0  0  0  0  0  0  0  0  0  0
  126.8690  143.0380  173.7770 F   0  0  0  0  0  0  0  0  0  0  0  0
  126.4260  140.9440  174.0270 F   0  0  0  0  0  0  0  0  0  0  0  0
  128.3620  141.5550  173.3230 F   0  0  0  0  0  0  0  0  0  0  0  0
  123.2250  143.9390  171.8410 F   0  0  0  0  0  0  0  0  0  0  0  0
  122.8210  145.3100  170.2470 F   0  0  0  0  0  0  0  0  0  0  0  0
  124.7410  145.3160  171.2240 F   0  0  0  0  0  0  0  0  0  0  0  0
  123.1450  144.1060  168.2190 H   0  0  0  0  0  0  0  0  0  0  0  0
  123.9120  142.5420  166.7120 H   0  0  0  0  0  0  0  0  0  0  0  0
  125.4760  141.0010  167.3150 H   0  0  0  0  0  0  0  0  0  0  0  0
  127.7480  140.1690  171.3310 H   0  0  0  0  0  0  0  0  0  0  0  0
  127.4030  139.9470  167.9150 H   0  0  0  0  0  0  0  0  0  0  0  0
  128.8940  138.6830  168.6690 H   0  0  0  0  0  0  0  0  0  0  0  0
  125.4320  138.7620  168.4450 H   0  0  0  0  0  0  0  0  0  0  0  0
  125.7660  138.3380  170.7200 H   0  0  0  0  0  0  0  0  0  0  0  0
  126.9370  137.3570  170.4060 H   0  0  0  0  0  0  0  0  0  0  0  0
  124.2040  136.9090  169.7810 H   0  0  0  0  0  0  0  0  0  0  0  0
  125.0680  136.0520  170.7470 H   0  0  0  0  0  0  0  0  0  0  0  0
  124.7700  134.9830  168.6190 H   0  0  0  0  0  0  0  0  0  0  0  0
  126.2680  135.1010  169.0170 H   0  0  0  0  0  0  0  0  0  0  0  0
  124.9240  136.7870  167.1540 H   0  0  0  0  0  0  0  0  0  0  0  0
  126.0910  135.8140  166.8160 H   0  0  0  0  0  0  0  0  0  0  0  0
  126.7640  137.9340  166.9070 H   0  0  0  0  0  0  0  0  0  0  0  0
  137.2700  143.9760  167.5760 C   0  0  0  0  0  0  0  0  0  0  0  0
  137.8580  144.8560  168.5020 C   0  0  0  0  0  0  0  0  0  0  0  0
  136.9340  142.7070  167.9410 C   0  0  0  0  0  0  0  0  0  0  0  0
  137.1240  140.6120  170.9940 C   0  0  0  0  0  0  0  0  0  0  0  0
  131.8770  139.4170  168.7910 C   0  0  0  0  0  0  0  0  0  0  0  0
  132.4880  140.2470  169.9140 C   0  0  0  0  0  0  0  0  0  0  0  0
  132.6870  139.5720  167.5080 C   0  0  0  0  0  0  0  0  0  0  0  0
  133.9820  139.9710  170.0660 C   0  0  0  0  0  0  0  0  0  0  0  0
  137.7120  141.5730  171.8260 C   0  0  0  0  0  0  0  0  0  0  0  0
  136.8460  140.9360  169.6960 C   0  0  0  0  0  0  0  0  0  0  0  0
  138.1040  144.4480  169.7820 C   0  0  0  0  0  0  0  0  0  0  0  0
  137.1690  142.2450  169.2540 C   0  0  0  0  0  0  0  0  0  0  0  0
  137.7630  143.1310  170.1860 C   0  0  0  0  0  0  0  0  0  0  0  0
  136.2030  139.8950  168.8020 C   0  0  0  0  0  0  0  0  0  0  0  0
  134.6870  140.1390  168.7180 C   0  0  0  0  0  0  0  0  0  0  0  0
  138.0160  141.2000  173.2540 C   0  0  0  0  0  0  0  0  0  0  0  0
  138.7300  145.3810  170.7740 C   0  0  0  0  0  0  0  0  0  0  0  0
  138.0230  142.7760  171.4570 N   0  0  0  0  0  0  0  0  0  0  0  0
  134.1070  139.3010  167.6840 N   0  0  0  0  0  0  0  0  0  0  0  0
  136.5050  138.5960  169.2360 O   0  0  0  0  0  0  0  0  0  0  0  0
  138.8280  142.0650  173.8430 F   0  0  0  0  0  0  0  0  0  0  0  0
  136.8950  141.1280  173.9830 F   0  0  0  0  0  0  0  0  0  0  0  0
  138.5920  139.9920  173.3130 F   0  0  0  0  0  0  0  0  0  0  0  0
  137.9270  145.5970  171.8230 F   0  0  0  0  0  0  0  0  0  0  0  0
  138.9860  146.5820  170.2440 F   0  0  0  0  0  0  0  0  0  0  0  0
  139.8760  144.9130  171.2740 F   0  0  0  0  0  0  0  0  0  0  0  0
  138.0750  145.7150  168.2210 H   0  0  0  0  0  0  0  0  0  0  0  0
  137.1090  144.2710  166.7080 H   0  0  0  0  0  0  0  0  0  0  0  0
  136.5450  142.1480  167.3080 H   0  0  0  0  0  0  0  0  0  0  0  0
  136.9280  139.7670  171.3290 H   0  0  0  0  0  0  0  0  0  0  0  0
  136.5790  139.9560  167.9100 H   0  0  0  0  0  0  0  0  0  0  0  0
  136.1740  138.0280  168.6970 H   0  0  0  0  0  0  0  0  0  0  0  0
  134.5610  141.0560  168.4260 H   0  0  0  0  0  0  0  0  0  0  0  0
  134.3650  140.5880  170.7080 H   0  0  0  0  0  0  0  0  0  0  0  0
  134.1130  139.0770  170.4190 H   0  0  0  0  0  0  0  0  0  0  0  0
  132.0330  140.0740  170.7530 H   0  0  0  0  0  0  0  0  0  0  0  0
  132.3600  141.1890  169.7210 H   0  0  0  0  0  0  0  0  0  0  0  0
  130.9640  139.7040  168.6300 H   0  0  0  0  0  0  0  0  0  0  0  0
  131.8330  138.4820  169.0450 H   0  0  0  0  0  0  0  0  0  0  0  0
  132.3480  138.9840  166.8150 H   0  0  0  0  0  0  0  0  0  0  0  0
  132.5960  140.4780  167.1740 H   0  0  0  0  0  0  0  0  0  0  0  0
  134.5160  139.4650  166.9110 H   0  0  0  0  0  0  0  0  0  0  0  0
  145.0950  133.4480  167.7300 C   0  0  0  0  0  0  0  0  0  0  0  0
  146.1450  133.3260  168.6560 C   0  0  0  0  0  0  0  0  0  0  0  0
  143.8190  133.1240  168.0820 C   0  0  0  0  0  0  0  0  0  0  0  0
  142.0650  131.8590  171.0960 C   0  0  0  0  0  0  0  0  0  0  0  0
  138.4060  135.8840  169.1860 C   0  0  0  0  0  0  0  0  0  0  0  0
  139.4280  135.6820  170.2970 C   0  0  0  0  0  0  0  0  0  0  0  0
  138.9460  135.3610  167.8590 C   0  0  0  0  0  0  0  0  0  0  0  0
  139.9380  134.2440  170.3350 C   0  0  0  0  0  0  0  0  0  0  0  0
  143.1870  131.7800  171.9290 C   0  0  0  0  0  0  0  0  0  0  0  0
  142.2170  132.2980  169.8100 C   0  0  0  0  0  0  0  0  0  0  0  0
  145.9020  132.8770  169.9220 C   0  0  0  0  0  0  0  0  0  0  0  0
  143.5210  132.6560  169.3810 C   0  0  0  0  0  0  0  0  0  0  0  0
  144.5810  132.5320  170.3130 C   0  0  0  0  0  0  0  0  0  0  0  0
  140.9940  132.3900  168.9200 C   0  0  0  0  0  0  0  0  0  0  0  0
  140.4380  133.8250  168.9500 C   0  0  0  0  0  0  0  0  0  0  0  0
  142.9990  131.2900  173.3410 C   0  0  0  0  0  0  0  0  0  0  0  0
  147.0190  132.7440  170.9110 C   0  0  0  0  0  0  0  0  0  0  0  0
  144.3920  132.0930  171.5700 N   0  0  0  0  0  0  0  0  0  0  0  0
  139.4210  133.9860  167.9270 N   0  0  0  0  0  0  0  0  0  0  0  0
  140.0280  131.4370  169.2770 O   0  0  0  0  0  0  0  0  0  0  0  0
  144.1270  130.8610  173.8870 F   0  0  0  0  0  0  0  0  0  0  0  0
  142.5060  132.2580  174.1240 F   0  0  0  0  0  0  0  0  0  0  0  0
  142.1180  130.2820  173.3760 F   0  0  0  0  0  0  0  0  0  0  0  0
  146.7970  133.4840  172.0050 F   0  0  0  0  0  0  0  0  0  0  0  0
  148.1870  133.1570  170.4090 F   0  0  0  0  0  0  0  0  0  0  0  0
  147.1850  131.4890  171.3360 F   0  0  0  0  0  0  0  0  0  0  0  0
  147.0050  133.5560  168.3850 H   0  0  0  0  0  0  0  0  0  0  0  0
  145.2790  133.7570  166.8720 H   0  0  0  0  0  0  0  0  0  0  0  0
  143.1430  133.2170  167.4500 H   0  0  0  0  0  0  0  0  0  0  0  0
  141.2280  131.6170  171.4220 H   0  0  0  0  0  0  0  0  0  0  0  0
  141.2380  132.1690  168.0070 H   0  0  0  0  0  0  0  0  0  0  0  0
  139.2750  131.8170  169.3800 H   0  0  0  0  0  0  0  0  0  0  0  0
  141.1660  134.4160  168.7030 H   0  0  0  0  0  0  0  0  0  0  0  0
  140.6640  134.1750  170.9740 H   0  0  0  0  0  0  0  0  0  0  0  0
  139.2320  133.6560  170.6450 H   0  0  0  0  0  0  0  0  0  0  0  0
  140.1730  136.2950  170.1930 H   0  0  0  0  0  0  0  0  0  0  0  0
  139.0180  135.8920  171.1510 H   0  0  0  0  0  0  0  0  0  0  0  0
  138.2000  136.8270  169.0980 H   0  0  0  0  0  0  0  0  0  0  0  0
  137.5740  135.4380  169.4060 H   0  0  0  0  0  0  0  0  0  0  0  0
  139.6730  135.9190  167.5410 H   0  0  0  0  0  0  0  0  0  0  0  0
  138.2480  135.4030  167.1870 H   0  0  0  0  0  0  0  0  0  0  0  0
  139.7680  133.7770  167.1350 H   0  0  0  0  0  0  0  0  0  0  0  0
  139.8610  121.2780  167.8250 C   0  0  0  0  0  0  0  0  0  0  0  0
  140.2690  120.3270  168.7770 C   0  0  0  0  0  0  0  0  0  0  0  0
  138.9330  122.2240  168.1430 C   0  0  0  0  0  0  0  0  0  0  0  0
  136.9030  123.1590  171.1040 C   0  0  0  0  0  0  0  0  0  0  0  0
  138.5000  128.3340  169.1760 C   0  0  0  0  0  0  0  0  0  0  0  0
  138.8820  127.3520  170.2760 C   0  0  0  0  0  0  0  0  0  0  0  0
  138.3340  127.6050  167.8470 C   0  0  0  0  0  0  0  0  0  0  0  0
  137.9310  126.1590  170.3190 C   0  0  0  0  0  0  0  0  0  0  0  0
  137.3860  122.1660  171.9650 C   0  0  0  0  0  0  0  0  0  0  0  0
  137.3820  123.2250  169.8260 C   0  0  0  0  0  0  0  0  0  0  0  0
  139.7350  120.3360  170.0330 C   0  0  0  0  0  0  0  0  0  0  0  0
  138.3550  122.2700  169.4310 C   0  0  0  0  0  0  0  0  0  0  0  0
  138.7660  121.3100  170.3890 C   0  0  0  0  0  0  0  0  0  0  0  0
  136.8600  124.3100  168.9060 C   0  0  0  0  0  0  0  0  0  0  0  0
  137.8090  125.5220  168.9320 C   0  0  0  0  0  0  0  0  0  0  0  0
  136.8440  122.1070  173.3700 C   0  0  0  0  0  0  0  0  0  0  0  0
  140.1660  119.3230  171.0500 C   0  0  0  0  0  0  0  0  0  0  0  0
  138.2700  121.2770  171.6390 N   0  0  0  0  0  0  0  0  0  0  0  0
  137.4110  126.4810  167.9160 N   0  0  0  0  0  0  0  0  0  0  0  0
  135.5410  124.6640  169.2310 O   0  0  0  0  0  0  0  0  0  0  0  0
  137.0490  120.9330  173.9470 F   0  0  0  0  0  0  0  0  0  0  0  0
  137.4050  123.0470  174.1410 F   0  0  0  0  0  0  0  0  0  0  0  0
  135.5250  122.3410  173.3770 F   0  0  0  0  0  0  0  0  0  0  0  0
  140.6810  119.9080  172.1390 F   0  0  0  0  0  0  0  0  0  0  0  0
  141.1130  118.5090  170.5760 F   0  0  0  0  0  0  0  0  0  0  0  0
  139.1560  118.5600  171.4760 F   0  0  0  0  0  0  0  0  0  0  0  0
  140.9040  119.6950  168.5290 H   0  0  0  0  0  0  0  0  0  0  0  0
  140.2370  121.2580  166.9750 H   0  0  0  0  0  0  0  0  0  0  0  0
  138.6840  122.8420  167.4940 H   0  0  0  0  0  0  0  0  0  0  0  0
  136.2670  123.7660  171.4090 H   0  0  0  0  0  0  0  0  0  0  0  0
  136.8110  123.9720  167.9980 H   0  0  0  0  0  0  0  0  0  0  0  0
  135.4800  125.5080  169.3020 H   0  0  0  0  0  0  0  0  0  0  0  0
  138.6870  125.2010  168.6720 H   0  0  0  0  0  0  0  0  0  0  0  0
  138.2680  125.5010  170.9460 H   0  0  0  0  0  0  0  0  0  0  0  0
  137.0650  126.4450  170.6500 H   0  0  0  0  0  0  0  0  0  0  0  0
  139.7940  127.0440  170.1590 H   0  0  0  0  0  0  0  0  0  0  0  0
  138.8550  127.8070  171.1330 H   0  0  0  0  0  0  0  0  0  0  0  0
  139.1880  129.0120  169.0870 H   0  0  0  0  0  0  0  0  0  0  0  0
  137.6810  128.7990  169.4060 H   0  0  0  0  0  0  0  0  0  0  0  0
  139.1880  127.2780  167.5260 H   0  0  0  0  0  0  0  0  0  0  0  0
  138.0020  128.2230  167.1780 H   0  0  0  0  0  0  0  0  0  0  0  0
  137.4090  126.0790  167.1220 H   0  0  0  0  0  0  0  0  0  0  0  0
  126.7340  120.0270  167.5760 C   0  0  0  0  0  0  0  0  0  0  0  0
  126.1510  119.1420  168.4990 C   0  0  0  0  0  0  0  0  0  0  0  0
  127.0640  121.2970  167.9440 C   0  0  0  0  0  0  0  0  0  0  0  0
  126.8650  123.3830  171.0030 C   0  0  0  0  0  0  0  0  0  0  0  0
  132.1080  124.5890  168.7740 C   0  0  0  0  0  0  0  0  0  0  0  0
  131.5050  123.7540  169.8980 C   0  0  0  0  0  0  0  0  0  0  0  0
  131.2900  124.4380  167.4970 C   0  0  0  0  0  0  0  0  0  0  0  0
  130.0120  124.0290  170.0610 C   0  0  0  0  0  0  0  0  0  0  0  0
  126.2830  122.4160  171.8330 C   0  0  0  0  0  0  0  0  0  0  0  0
  127.1440  123.0640  169.7040 C   0  0  0  0  0  0  0  0  0  0  0  0
  125.9040  119.5450  169.7810 C   0  0  0  0  0  0  0  0  0  0  0  0
  126.8270  121.7550  169.2590 C   0  0  0  0  0  0  0  0  0  0  0  0
  126.2380  120.8630  170.1890 C   0  0  0  0  0  0  0  0  0  0  0  0
  127.7820  124.1100  168.8120 C   0  0  0  0  0  0  0  0  0  0  0  0
  129.2980  123.8670  168.7170 C   0  0  0  0  0  0  0  0  0  0  0  0
  125.9770  122.7860  173.2620 C   0  0  0  0  0  0  0  0  0  0  0  0
  125.2820  118.6060  170.7700 C   0  0  0  0  0  0  0  0  0  0  0  0
  125.9760  121.2140  171.4600 N   0  0  0  0  0  0  0  0  0  0  0  0
  129.8710  124.7090  167.6830 N   0  0  0  0  0  0  0  0  0  0  0  0
  127.4820  125.4070  169.2550 O   0  0  0  0  0  0  0  0  0  0  0  0
  125.0630  121.9960  173.8060 F   0  0  0  0  0  0  0  0  0  0  0  0
  127.0780  122.7260  174.0210 F   0  0  0  0  0  0  0  0  0  0  0  0
  125.5260  124.0450  173.3360 F   0  0  0  0  0  0  0  0  0  0  0  0
  126.0720  118.4150  171.8330 F   0  0  0  0  0  0  0  0  0  0  0  0
  125.0590  117.3970  170.2450 F   0  0  0  0  0  0  0  0  0  0  0  0
  124.1180  119.0570  171.2460 F   0  0  0  0  0  0  0  0  0  0  0  0
  125.9380  118.2820  168.2170 H   0  0  0  0  0  0  0  0  0  0  0  0
  126.8960  119.7350  166.7070 H   0  0  0  0  0  0  0  0  0  0  0  0
  127.4500  121.8590  167.3130 H   0  0  0  0  0  0  0  0  0  0  0  0
  127.0570  124.2280  171.3400 H   0  0  0  0  0  0  0  0  0  0  0  0
  127.4010  124.0540  167.9220 H   0  0  0  0  0  0  0  0  0  0  0  0
  127.8030  125.9770  168.7120 H   0  0  0  0  0  0  0  0  0  0  0  0
  129.4220  122.9510  168.4200 H   0  0  0  0  0  0  0  0  0  0  0  0
  129.6340  123.4080  170.7020 H   0  0  0  0  0  0  0  0  0  0  0  0
  129.8820  124.9200  170.4210 H   0  0  0  0  0  0  0  0  0  0  0  0
  131.9660  123.9240  170.7340 H   0  0  0  0  0  0  0  0  0  0  0  0
  131.6330  122.8130  169.7000 H   0  0  0  0  0  0  0  0  0  0  0  0
  133.0200  124.3050  168.6060 H   0  0  0  0  0  0  0  0  0  0  0  0
  132.1520  125.5230  169.0330 H   0  0  0  0  0  0  0  0  0  0  0  0
  131.3830  123.5450  167.1320 H   0  0  0  0  0  0  0  0  0  0  0  0
  131.6240  125.0510  166.8230 H   0  0  0  0  0  0  0  0  0  0  0  0
  129.4580  124.5460  166.9110 H   0  0  0  0  0  0  0  0  0  0  0  0
  118.9930  130.5580  167.5700 C   0  0  0  0  0  0  0  0  0  0  0  0
  117.9370  130.6360  168.4950 C   0  0  0  0  0  0  0  0  0  0  0  0
  120.2610  130.8990  167.9340 C   0  0  0  0  0  0  0  0  0  0  0  0
  121.9830  132.1230  170.9820 C   0  0  0  0  0  0  0  0  0  0  0  0
  125.6320  128.1540  168.7930 C   0  0  0  0  0  0  0  0  0  0  0  0
  124.6150  128.2770  169.9210 C   0  0  0  0  0  0  0  0  0  0  0  0
  125.0850  128.7680  167.5090 C   0  0  0  0  0  0  0  0  0  0  0  0
  124.1070  129.7100  170.0660 C   0  0  0  0  0  0  0  0  0  0  0  0
  120.8560  132.1600  171.8130 C   0  0  0  0  0  0  0  0  0  0  0  0
  121.8410  131.7130  169.6860 C   0  0  0  0  0  0  0  0  0  0  0  0
  118.1680  131.0590  169.7720 C   0  0  0  0  0  0  0  0  0  0  0  0
  120.5450  131.3400  169.2460 C   0  0  0  0  0  0  0  0  0  0  0  0
  119.4800  131.4200  170.1760 C   0  0  0  0  0  0  0  0  0  0  0  0
  123.0640  131.6670  168.7930 C   0  0  0  0  0  0  0  0  0  0  0  0
  123.6040  130.2290  168.7160 C   0  0  0  0  0  0  0  0  0  0  0  0
  121.0290  132.6180  173.2390 C   0  0  0  0  0  0  0  0  0  0  0  0
  117.0450  131.1450  170.7620 C   0  0  0  0  0  0  0  0  0  0  0  0
  119.6580  131.8310  171.4450 N   0  0  0  0  0  0  0  0  0  0  0  0
  124.6130  130.1350  167.6770 N   0  0  0  0  0  0  0  0  0  0  0  0
  124.0420  132.5780  169.2220 O   0  0  0  0  0  0  0  0  0  0  0  0
  119.8790  132.9410  173.8120 F   0  0  0  0  0  0  0  0  0  0  0  0
  121.6050  131.6660  173.9840 F   0  0  0  0  0  0  0  0  0  0  0  0
  121.8300  133.6900  173.2960 F   0  0  0  0  0  0  0  0  0  0  0  0
  117.2790  130.3860  171.8400 F   0  0  0  0  0  0  0  0  0  0  0  0
  115.8880  130.7190  170.2480 F   0  0  0  0  0  0  0  0  0  0  0  0
  116.8510  132.3860  171.2140 F   0  0  0  0  0  0  0  0  0  0  0  0
  117.0840  130.3960  168.2150 H   0  0  0  0  0  0  0  0  0  0  0  0
  118.8180  130.2670  166.7040 H   0  0  0  0  0  0  0  0  0  0  0  0
  120.9410  130.8360  167.3020 H   0  0  0  0  0  0  0  0  0  0  0  0
  122.8130  132.3740  171.3160 H   0  0  0  0  0  0  0  0  0  0  0  0
  122.8250  131.9580  167.8990 H   0  0  0  0  0  0  0  0  0  0  0  0
  124.6680  132.6180  168.6500 H   0  0  0  0  0  0  0  0  0  0  0  0
  122.8690  129.6640  168.4320 H   0  0  0  0  0  0  0  0  0  0  0  0
  123.3820  129.7360  170.7090 H   0  0  0  0  0  0  0  0  0  0  0  0
  124.8150  130.2730  170.4150 H   0  0  0  0  0  0  0  0  0  0  0  0
  123.8700  127.6740  169.7760 H   0  0  0  0  0  0  0  0  0  0  0  0
  125.0290  128.0050  170.7550 H   0  0  0  0  0  0  0  0  0  0  0  0
  126.4540  128.6070  169.0400 H   0  0  0  0  0  0  0  0  0  0  0  0
  125.8620  127.2240  168.6450 H   0  0  0  0  0  0  0  0  0  0  0  0
  124.3540  128.2350  167.1580 H   0  0  0  0  0  0  0  0  0  0  0  0
  125.7780  128.7720  166.8310 H   0  0  0  0  0  0  0  0  0  0  0  0
  124.2610  130.4000  166.9040 H   0  0  0  0  0  0  0  0  0  0  0  0
  1  2  1  0  0  0  0
  1  3  2  0  0  0  0
  5  6  1  0  0  0  0
  5  7  1  0  0  0  0
  6  8  1  0  0  0  0
  4  9  2  0  0  0  0
  4 10  1  0  0  0  0
  2 11  2  0  0  0  0
  3 12  1  0  0  0  0
 10 12  2  0  0  0  0
 11 13  1  0  0  0  0
 12 13  1  0  0  0  0
 10 14  1  0  0  0  0
  8 15  1  0  0  0  0
 14 15  1  0  0  0  0
  9 16  1  0  0  0  0
 11 17  1  0  0  0  0
  9 18  1  0  0  0  0
 13 18  2  0  0  0  0
  7 19  1  0  0  0  0
 15 19  1  0  0  0  0
 14 20  1  0  0  0  0
 16 21  1  0  0  0  0
 16 22  1  0  0  0  0
 16 23  1  0  0  0  0
 17 24  1  0  0  0  0
 17 25  1  0  0  0  0
 17 26  1  0  0  0  0
  2 27  1  0  0  0  0
  1 28  1  0  0  0  0
  3 29  1  0  0  0  0
  4 30  1  0  0  0  0
 14 31  1  0  0  0  0
 20 32  1  0  0  0  0
 15 33  1  0  0  0  0
  8 34  1  0  0  0  0
  8 35  1  0  0  0  0
  6 36  1  0  0  0  0
  6 37  1  0  0  0  0
  5 38  1  0  0  0  0
  5 39  1  0  0  0  0
  7 40  1  0  0  0  0
  7 41  1  0  0  0  0
 19 42  1  0  0  0  0
 43 44  1  0  0  0  0
 43 45  2  0  0  0  0
 47 48  1  0  0  0  0
 47 49  1  0  0  0  0
 48 50  1  0  0  0  0
 46 51  2  0  0  0  0
 46 52  1  0  0  0  0
 44 53  2  0  0  0  0
 45 54  1  0  0  0  0
 52 54  2  0  0  0  0
 53 55  1  0  0  0  0
 54 55  1  0  0  0  0
 52 56  1  0  0  0  0
 50 57  1  0  0  0  0
 56 57  1  0  0  0  0
 51 58  1  0  0  0  0
 53 59  1  0  0  0  0
 51 60  1  0  0  0  0
 55 60  2  0  0  0  0
 49 61  1  0  0  0  0
 57 61  1  0  0  0  0
 56 62  1  0  0  0  0
 58 63  1  0  0  0  0
 58 64  1  0  0  0  0
 58 65  1  0  0  0  0
 59 66  1  0  0  0  0
 59 67  1  0  0  0  0
 59 68  1  0  0  0  0
 44 69  1  0  0  0  0
 43 70  1  0  0  0  0
 45 71  1  0  0  0  0
 46 72  1  0  0  0  0
 56 73  1  0  0  0  0
 62 74  1  0  0  0  0
 57 75  1  0  0  0  0
 50 76  1  0  0  0  0
 50 77  1  0  0  0  0
 48 78  1  0  0  0  0
 48 79  1  0  0  0  0
 47 80  1  0  0  0  0
 47 81  1  0  0  0  0
 49 82  1  0  0  0  0
 49 83  1  0  0  0  0
 61 84  1  0  0  0  0
 85 86  1  0  0  0  0
 85 87  2  0  0  0  0
 89 90  1  0  0  0  0
 89 91  1  0  0  0  0
 90 92  1  0  0  0  0
 88 93  2  0  0  0  0
 88 94  1  0  0  0  0
 86 95  2  0  0  0  0
 87 96  1  0  0  0  0
 94 96  2  0  0  0  0
 95 97  1  0  0  0  0
 96 97  1  0  0  0  0
 94 98  1  0  0  0  0
 92 99  1  0  0  0  0
 98 99  1  0  0  0  0
 93100  1  0  0  0  0
 95101  1  0  0  0  0
 93102  1  0  0  0  0
 97102  2  0  0  0  0
 91103  1  0  0  0  0
 99103  1  0  0  0  0
 98104  1  0  0  0  0
100105  1  0  0  0  0
100106  1  0  0  0  0
100107  1  0  0  0  0
101108  1  0  0  0  0
101109  1  0  0  0  0
101110  1  0  0  0  0
 86111  1  0  0  0  0
 85112  1  0  0  0  0
 87113  1  0  0  0  0
 88114  1  0  0  0  0
 98115  1  0  0  0  0
104116  1  0  0  0  0
 99117  1  0  0  0  0
 92118  1  0  0  0  0
 92119  1  0  0  0  0
 90120  1  0  0  0  0
 90121  1  0  0  0  0
 89122  1  0  0  0  0
 89123  1  0  0  0  0
 91124  1  0  0  0  0
 91125  1  0  0  0  0
103126  1  0  0  0  0
127128  1  0  0  0  0
127129  2  0  0  0  0
131132  1  0  0  0  0
131133  1  0  0  0  0
132134  1  0  0  0  0
130135  2  0  0  0  0
130136  1  0  0  0  0
128137  2  0  0  0  0
129138  1  0  0  0  0
136138  2  0  0  0  0
137139  1  0  0  0  0
138139  1  0  0  0  0
136140  1  0  0  0  0
134141  1  0  0  0  0
140141  1  0  0  0  0
135142  1  0  0  0  0
137143  1  0  0  0  0
135144  1  0  0  0  0
139144  2  0  0  0  0
133145  1  0  0  0  0
141145  1  0  0  0  0
140146  1  0  0  0  0
142147  1  0  0  0  0
142148  1  0  0  0  0
142149  1  0  0  0  0
143150  1  0  0  0  0
143151  1  0  0  0  0
143152  1  0  0  0  0
128153  1  0  0  0  0
127154  1  0  0  0  0
129155  1  0  0  0  0
130156  1  0  0  0  0
140157  1  0  0  0  0
146158  1  0  0  0  0
141159  1  0  0  0  0
134160  1  0  0  0  0
134161  1  0  0  0  0
132162  1  0  0  0  0
132163  1  0  0  0  0
131164  1  0  0  0  0
131165  1  0  0  0  0
133166  1  0  0  0  0
133167  1  0  0  0  0
145168  1  0  0  0  0
169170  1  0  0  0  0
169171  2  0  0  0  0
173174  1  0  0  0  0
173175  1  0  0  0  0
174176  1  0  0  0  0
172177  2  0  0  0  0
172178  1  0  0  0  0
170179  2  0  0  0  0
171180  1  0  0  0  0
178180  2  0  0  0  0
179181  1  0  0  0  0
180181  1  0  0  0  0
178182  1  0  0  0  0
176183  1  0  0  0  0
182183  1  0  0  0  0
177184  1  0  0  0  0
179185  1  0  0  0  0
177186  1  0  0  0  0
181186  2  0  0  0  0
175187  1  0  0  0  0
183187  1  0  0  0  0
182188  1  0  0  0  0
184189  1  0  0  0  0
184190  1  0  0  0  0
184191  1  0  0  0  0
185192  1  0  0  0  0
185193  1  0  0  0  0
185194  1  0  0  0  0
170195  1  0  0  0  0
169196  1  0  0  0  0
171197  1  0  0  0  0
172198  1  0  0  0  0
182199  1  0  0  0  0
188200  1  0  0  0  0
183201  1  0  0  0  0
176202  1  0  0  0  0
176203  1  0  0  0  0
174204  1  0  0  0  0
174205  1  0  0  0  0
173206  1  0  0  0  0
173207  1  0  0  0  0
175208  1  0  0  0  0
175209  1  0  0  0  0
187210  1  0  0  0  0
211212  1  0  0  0  0
211213  2  0  0  0  0
215216  1  0  0  0  0
215217  1  0  0  0  0
216218  1  0  0  0  0
214219  2  0  0  0  0
214220  1  0  0  0  0
212221  2  0  0  0  0
213222  1  0  0  0  0
220222  2  0  0  0  0
221223  1  0  0  0  0
222223  1  0  0  0  0
220224  1  0  0  0  0
218225  1  0  0  0  0
224225  1  0  0  0  0
219226  1  0  0  0  0
221227  1  0  0  0  0
219228  1  0  0  0  0
223228  2  0  0  0  0
217229  1  0  0  0  0
225229  1  0  0  0  0
224230  1  0  0  0  0
226231  1  0  0  0  0
226232  1  0  0  0  0
226233  1  0  0  0  0
227234  1  0  0  0  0
227235  1  0  0  0  0
227236  1  0  0  0  0
212237  1  0  0  0  0
211238  1  0  0  0  0
213239  1  0  0  0  0
214240  1  0  0  0  0
224241  1  0  0  0  0
230242  1  0  0  0  0
225243  1  0  0  0  0
218244  1  0  0  0  0
218245  1  0  0  0  0
216246  1  0  0  0  0
216247  1  0  0  0  0
215248  1  0  0  0  0
215249  1  0  0  0  0
217250  1  0  0  0  0
217251  1  0  0  0  0
229252  1  0  0  0  0
253254  1  0  0  0  0
253255  2  0  0  0  0
257258  1  0  0  0  0
257259  1  0  0  0  0
258260  1  0  0  0  0
256261  2  0  0  0  0
256262  1  0  0  0  0
254263  2  0  0  0  0
255264  1  0  0  0  0
262264  2  0  0  0  0
263265  1  0  0  0  0
264265  1  0  0  0  0
262266  1  0  0  0  0
260267  1  0  0  0  0
266267  1  0  0  0  0
261268  1  0  0  0  0
263269  1  0  0  0  0
261270  1  0  0  0  0
265270  2  0  0  0  0
259271  1  0  0  0  0
267271  1  0  0  0  0
266272  1  0  0  0  0
268273  1  0  0  0  0
268274  1  0  0  0  0
268275  1  0  0  0  0
269276  1  0  0  0  0
269277  1  0  0  0  0
269278  1  0  0  0  0
254279  1  0  0  0  0
253280  1  0  0  0  0
255281  1  0  0  0  0
256282  1  0  0  0  0
266283  1  0  0  0  0
272284  1  0  0  0  0
267285  1  0  0  0  0
260286  1  0  0  0  0
260287  1  0  0  0  0
258288  1  0  0  0  0
258289  1  0  0  0  0
257290  1  0  0  0  0
257291  1  0  0  0  0
259292  1  0  0  0  0
259293  1  0  0  0  0
271294  1  0  0  0  0
295296  1  0  0  0  0
295297  2  0  0  0  0
299300  1  0  0  0  0
299301  1  0  0  0  0
300302  1  0  0  0  0
298303  2  0  0  0  0
298304  1  0  0  0  0
296305  2  0  0  0  0
297306  1  0  0  0  0
304306  2  0  0  0  0
305307  1  0  0  0  0
306307  1  0  0  0  0
304308  1  0  0  0  0
302309  1  0  0  0  0
308309  1  0  0  0  0
303310  1  0  0  0  0
305311  1  0  0  0  0
303312  1  0  0  0  0
307312  2  0  0  0  0
301313  1  0  0  0  0
309313  1  0  0  0  0
308314  1  0  0  0  0
310315  1  0  0  0  0
310316  1  0  0  0  0
310317  1  0  0  0  0
311318  1  0  0  0  0
311319  1  0  0  0  0
311320  1  0  0  0  0
296321  1  0  0  0  0
295322  1  0  0  0  0
297323  1  0  0  0  0
298324  1  0  0  0  0
308325  1  0  0  0  0
314326  1  0  0  0  0
309327  1  0  0  0  0
302328  1  0  0  0  0
302329  1  0  0  0  0
300330  1  0  0  0  0
300331  1  0  0  0  0
299332  1  0  0  0  0
299333  1  0  0  0  0
301334  1  0  0  0  0
301335  1  0  0  0  0
313336  1  0  0  0  0
337338  1  0  0  0  0
337339  2  0  0  0  0
341342  1  0  0  0  0
341343  1  0  0  0  0
342344  1  0  0  0  0
340345  2  0  0  0  0
340346  1  0  0  0  0
338347  2  0  0  0  0
339348  1  0  0  0  0
346348  2  0  0  0  0
347349  1  0  0  0  0
348349  1  0  0  0  0
346350  1  0  0  0  0
344351  1  0  0  0  0
350351  1  0  0  0  0
345352  1  0  0  0  0
347353  1  0  0  0  0
345354  1  0  0  0  0
349354  2  0  0  0  0
343355  1  0  0  0  0
351355  1  0  0  0  0
350356  1  0  0  0  0
352357  1  0  0  0  0
352358  1  0  0  0  0
352359  1  0  0  0  0
353360  1  0  0  0  0
353361  1  0  0  0  0
353362  1  0  0  0  0
338363  1  0  0  0  0
337364  1  0  0  0  0
339365  1  0  0  0  0
340366  1  0  0  0  0
350367  1  0  0  0  0
356368  1  0  0  0  0
351369  1  0  0  0  0
344370  1  0  0  0  0
344371  1  0  0  0  0
342372  1  0  0  0  0
342373  1  0  0  0  0
341374  1  0  0  0  0
341375  1  0  0  0  0
343376  1  0  0  0  0
343377  1  0  0  0  0
355378  1  0  0  0  0
379380  1  0  0  0  0
379381  2  0  0  0  0
383384  1  0  0  0  0
383385  1  0  0  0  0
384386  1  0  0  0  0
382387  2  0  0  0  0
382388  1  0  0  0  0
380389  2  0  0  0  0
381390  1  0  0  0  0
388390  2  0  0  0  0
389391  1  0  0  0  0
390391  1  0  0  0  0
388392  1  0  0  0  0
386393  1  0  0  0  0
392393  1  0  0  0  0
387394  1  0  0  0  0
389395  1  0  0  0  0
387396  1  0  0  0  0
391396  2  0  0  0  0
385397  1  0  0  0  0
393397  1  0  0  0  0
392398  1  0  0  0  0
394399  1  0  0  0  0
394400  1  0  0  0  0
394401  1  0  0  0  0
395402  1  0  0  0  0
395403  1  0  0  0  0
395404  1  0  0  0  0
380405  1  0  0  0  0
379406  1  0  0  0  0
381407  1  0  0  0  0
382408  1  0  0  0  0
392409  1  0  0  0  0
398410  1  0  0  0  0
393411  1  0  0  0  0
386412  1  0  0  0  0
386413  1  0  0  0  0
384414  1  0  0  0  0
384415  1  0  0  0  0
383416  1  0  0  0  0
383417  1  0  0  0  0
385418  1  0  0  0  0
385419  1  0  0  0  0
397420  1  0  0  0  0
421422  1  0  0  0  0
421423  2  0  0  0  0
425426  1  0  0  0  0
425427  1  0  0  0  0
426428  1  0  0  0  0
424429  2  0  0  0  0
424430  1  0  0  0  0
422431  2  0  0  0  0
423432  1  0  0  0  0
430432  2  0  0  0  0
431433  1  0  0  0  0
432433  1  0  0  0  0
430434  1  0  0  0  0
428435  1  0  0  0  0
434435  1  0  0  0  0
429436  1  0  0  0  0
431437  1  0  0  0  0
429438  1  0  0  0  0
433438  2  0  0  0  0
427439  1  0  0  0  0
435439  1  0  0  0  0
434440  1  0  0  0  0
436441  1  0  0  0  0
436442  1  0  0  0  0
436443  1  0  0  0  0
437444  1  0  0  0  0
437445  1  0  0  0  0
437446  1  0  0  0  0
422447  1  0  0  0  0
421448  1  0  0  0  0
423449  1  0  0  0  0
424450  1  0  0  0  0
434451  1  0  0  0  0
440452  1  0  0  0  0
435453  1  0  0  0  0
428454  1  0  0  0  0
428455  1  0  0  0  0
426456  1  0  0  0  0
426457  1  0  0  0  0
425458  1  0  0  0  0
425459  1  0  0  0  0
427460  1  0  0  0  0
427461  1  0  0  0  0
439462  1  0  0  0  0
463464  1  0  0  0  0
463465  2  0  0  0  0
467468  1  0  0  0  0
467469  1  0  0  0  0
468470  1  0  0  0  0
466471  2  0  0  0  0
466472  1  0  0  0  0
464473  2  0  0  0  0
465474  1  0  0  0  0
472474  2  0  0  0  0
473475  1  0  0  0  0
474475  1  0  0  0  0
472476  1  0  0  0  0
470477  1  0  0  0  0
476477  1  0  0  0  0
471478  1  0  0  0  0
473479  1  0  0  0  0
471480  1  0  0  0  0
475480  2  0  0  0  0
469481  1  0  0  0  0
477481  1  0  0  0  0
476482  1  0  0  0  0
478483  1  0  0  0  0
478484  1  0  0  0  0
478485  1  0  0  0  0
479486  1  0  0  0  0
479487  1  0  0  0  0
479488  1  0  0  0  0
464489  1  0  0  0  0
463490  1  0  0  0  0
465491  1  0  0  0  0
466492  1  0  0  0  0
476493  1  0  0  0  0
482494  1  0  0  0  0
477495  1  0  0  0  0
470496  1  0  0  0  0
470497  1  0  0  0  0
468498  1  0  0  0  0
468499  1  0  0  0  0
467500  1  0  0  0  0
467501  1  0  0  0  0
469502  1  0  0  0  0
469503  1  0  0  0  0
481504  1  0  0  0  0
M  END
$$$$
