8CVN
  PyMOL3.1          3D                             0

 28 31  0  0  0  0  0  0  0  0999 V2000
  119.3660  142.3500  118.0760 C   0  0  0  0  0  0  0  0  0  0  0  0
  121.4090  142.9070  119.0520 N   0  0  0  0  0  0  0  0  0  0  0  0
  121.7850  140.8620  128.5620 O   0  0  0  0  0  0  0  0  0  0  0  0
  119.1250  142.4170  119.7460 S   0  0  0  0  0  0  0  0  0  0  0  0
  120.7240  142.6600  117.9030 C   0  0  0  0  0  0  0  0  0  0  0  0
  120.6230  142.4040  122.5960 N   0  0  0  0  0  0  0  0  0  0  0  0
  120.4660  141.8870  125.3130 S   0  0  0  0  0  0  0  0  0  0  0  0
  120.7010  142.8170  120.1780 C   0  0  0  0  0  0  0  0  0  0  0  0
  124.9760  145.1920  122.7350 N   0  0  0  0  0  0  0  0  0  0  0  0
  121.5170  142.4440  128.1930 S   0  0  0  0  0  0  0  0  0  0  0  0
  121.1940  143.0480  121.5930 C   0  0  0  0  0  0  0  0  0  0  0  0
  124.9080  146.9170  124.0220 N   0  0  0  0  0  0  0  0  0  0  0  0
  122.2260  143.9520  121.8310 C   0  0  0  0  0  0  0  0  0  0  0  0
  123.3120  144.3160  126.2380 N   0  0  0  0  0  0  0  0  0  0  0  0
  122.6680  144.1640  123.1250 C   0  0  0  0  0  0  0  0  0  0  0  0
  122.0390  143.4560  124.1800 C   0  0  0  0  0  0  0  0  0  0  0  0
  121.0120  142.5800  123.8520 C   0  0  0  0  0  0  0  0  0  0  0  0
  122.2970  143.4910  125.6210 C   0  0  0  0  0  0  0  0  0  0  0  0
  121.4950  142.6560  126.4010 C   0  0  0  0  0  0  0  0  0  0  0  0
  123.7970  145.1740  123.3280 C   0  0  0  0  0  0  0  0  0  0  0  0
  125.6440  146.2430  123.1660 C   0  0  0  0  0  0  0  0  0  0  0  0
  123.7530  146.2950  124.1420 C   0  0  0  0  0  0  0  0  0  0  0  0
  125.4690  144.2180  121.7810 C   0  0  0  0  0  0  0  0  0  0  0  0
  127.0530  146.6290  122.7420 C   0  0  0  0  0  0  0  0  0  0  0  0
  119.8890  142.9720  128.7910 C   0  0  0  0  0  0  0  0  0  0  0  0
  119.7790  142.7710  130.2940 C   0  0  0  0  0  0  0  0  0  0  0  0
  120.2040  144.0220  131.0510 C   0  0  0  0  0  0  0  0  0  0  0  0
  120.7530  143.6850  132.4300 C   0  0  0  0  0  0  0  0  0  0  0  0
  1  4  1  0  0  0  0
  1  5  2  0  0  0  0
  2  5  1  0  0  0  0
  2  8  2  0  0  0  0
  4  8  1  0  0  0  0
  3 10  1  0  0  0  0
  6 11  1  0  0  0  0
  8 11  1  0  0  0  0
 11 13  2  0  0  0  0
 13 15  1  0  0  0  0
 15 16  2  0  0  0  0
  6 17  2  0  0  0  0
  7 17  1  0  0  0  0
 16 17  1  0  0  0  0
 14 18  1  0  0  0  0
 16 18  1  0  0  0  0
  7 19  1  0  0  0  0
 10 19  1  0  0  0  0
 18 19  2  0  0  0  0
  9 20  1  0  0  0  0
 15 20  1  0  0  0  0
  9 21  1  0  0  0  0
 12 21  2  0  0  0  0
 12 22  1  0  0  0  0
 20 22  2  0  0  0  0
  9 23  1  0  0  0  0
 21 24  1  0  0  0  0
 10 25  1  0  0  0  0
 25 26  1  0  0  0  0
 26 27  1  0  0  0  0
 27 28  1  0  0  0  0
M  END
$$$$
