7REC
  PyMOL3.1          3D                             0

 20 21  0  0  0  0  0  0  0  0999 V2000
   19.3960   70.4270   30.9580 N   0  0  0  0  0  0  0  0  0  0  0  0
   18.7710   73.0390   28.9380 C   0  0  0  0  0  0  0  0  0  0  0  0
   18.7830   74.1070   28.2750 O   0  5  0  0  0  0  0  0  0  0  0  0
   19.9080   68.7250   28.6030 Cl  0  0  0  0  0  0  0  0  0  0  0  0
   19.7640   69.9290   33.9330 Cl  0  0  0  0  0  0  0  0  0  0  0  0
   18.7070   73.0950   30.4610 C   0  0  0  0  0  0  0  0  0  0  0  0
   18.8110   71.9240   28.3530 O   0  0  0  0  0  0  0  0  0  0  0  0
   17.6630   72.1260   30.9990 C   0  0  0  0  0  0  0  0  0  0  0  0
   14.1290   72.0940   31.9820 O   0  0  0  0  0  0  0  0  0  0  0  0
   18.0250   70.8150   31.2350 C   0  0  0  0  0  0  0  0  0  0  0  0
   19.9080   69.1120   31.3060 C   0  0  0  0  0  0  0  0  0  0  0  0
   20.1990   68.2220   30.2890 C   0  0  0  0  0  0  0  0  0  0  0  0
   20.7010   66.9650   30.5870 C   0  0  0  0  0  0  0  0  0  0  0  0
   20.9160   66.6110   31.9100 C   0  0  0  0  0  0  0  0  0  0  0  0
   20.6330   67.5070   32.9300 C   0  0  0  0  0  0  0  0  0  0  0  0
   20.1320   68.7650   32.6290 C   0  0  0  0  0  0  0  0  0  0  0  0
   17.0940   69.9120   31.7220 C   0  0  0  0  0  0  0  0  0  0  0  0
   15.7970   70.3380   31.9680 C   0  0  0  0  0  0  0  0  0  0  0  0
   15.4370   71.6590   31.7330 C   0  0  0  0  0  0  0  0  0  0  0  0
   16.3720   72.5550   31.2450 C   0  0  0  0  0  0  0  0  0  0  0  0
  2  3  2  0  0  0  0
  2  6  1  0  0  0  0
  2  7  1  0  0  0  0
  6  8  1  0  0  0  0
  1 10  1  0  0  0  0
  8 10  1  0  0  0  0
  1 11  1  0  0  0  0
  4 12  1  0  0  0  0
 11 12  2  0  0  0  0
 12 13  1  0  0  0  0
 13 14  2  0  0  0  0
 14 15  1  0  0  0  0
  5 16  1  0  0  0  0
 11 16  1  0  0  0  0
 15 16  2  0  0  0  0
 10 17  2  0  0  0  0
 17 18  1  0  0  0  0
  9 19  1  0  0  0  0
 18 19  2  0  0  0  0
  8 20  2  0  0  0  0
 19 20  1  0  0  0  0
M  END
$$$$
