7REC
  PyMOL3.1          3D                             0

 20 21  0  0  0  0  0  0  0  0999 V2000
    6.0050    6.4140   39.7580 N   0  0  0  0  0  0  0  0  0  0  0  0
    5.7810    3.6050   37.6770 C   0  0  0  0  0  0  0  0  0  0  0  0
    5.7260    2.4380   37.2080 O   0  0  0  0  0  0  0  0  0  0  0  0
    3.2180    7.3620   39.3170 Cl  0  0  0  0  0  0  0  0  0  0  0  0
    8.1830    7.3830   41.6180 Cl  0  0  0  0  0  0  0  0  0  0  0  0
    6.9580    4.0200   38.5540 C   0  0  0  0  0  0  0  0  0  0  0  0
    4.8700    4.4380   37.4250 O   0  5  0  0  0  0  0  0  0  0  0  0
    7.4920    5.3800   38.1190 C   0  0  0  0  0  0  0  0  0  0  0  0
    9.9030    6.7640   35.7280 O   0  0  0  0  0  0  0  0  0  0  0  0
    7.0130    6.5320   38.7170 C   0  0  0  0  0  0  0  0  0  0  0  0
    5.6380    7.5490   40.5880 C   0  0  0  0  0  0  0  0  0  0  0  0
    4.3650    8.0780   40.4820 C   0  0  0  0  0  0  0  0  0  0  0  0
    3.9950    9.1550   41.2720 C   0  0  0  0  0  0  0  0  0  0  0  0
    4.9030    9.6950   42.1680 C   0  0  0  0  0  0  0  0  0  0  0  0
    6.1780    9.1600   42.2790 C   0  0  0  0  0  0  0  0  0  0  0  0
    6.5450    8.0820   41.4890 C   0  0  0  0  0  0  0  0  0  0  0  0
    7.4920    7.7710   38.3230 C   0  0  0  0  0  0  0  0  0  0  0  0
    8.4530    7.8510   37.3270 C   0  0  0  0  0  0  0  0  0  0  0  0
    8.9310    6.6930   36.7310 C   0  0  0  0  0  0  0  0  0  0  0  0
    8.4500    5.4580   37.1260 C   0  0  0  0  0  0  0  0  0  0  0  0
  2  3  2  0  0  0  0
  2  6  1  0  0  0  0
  2  7  1  0  0  0  0
  6  8  1  0  0  0  0
  1 10  1  0  0  0  0
  8 10  1  0  0  0  0
  1 11  1  0  0  0  0
  4 12  1  0  0  0  0
 11 12  2  0  0  0  0
 12 13  1  0  0  0  0
 13 14  2  0  0  0  0
 14 15  1  0  0  0  0
  5 16  1  0  0  0  0
 11 16  1  0  0  0  0
 15 16  2  0  0  0  0
 10 17  2  0  0  0  0
 17 18  1  0  0  0  0
  9 19  1  0  0  0  0
 18 19  2  0  0  0  0
  8 20  2  0  0  0  0
 19 20  1  0  0  0  0
M  END
$$$$
