7REC
  PyMOL3.1          3D                             0

 20 21  0  0  0  0  0  0  0  0999 V2000
   29.5280   18.5900   27.7060 N   0  0  0  0  0  0  0  0  0  0  0  0
   31.2320   17.6800   24.7840 C   0  0  0  0  0  0  0  0  0  0  0  0
   32.0270   17.2680   23.8940 O   0  0  0  0  0  0  0  0  0  0  0  0
   26.9250   17.1840   27.2740 Cl  0  0  0  0  0  0  0  0  0  0  0  0
   30.6290   20.0420   30.1360 Cl  0  0  0  0  0  0  0  0  0  0  0  0
   31.7530   18.5390   25.9310 C   0  0  0  0  0  0  0  0  0  0  0  0
   30.0080   17.3860   24.7440 O   0  5  0  0  0  0  0  0  0  0  0  0
   30.9330   19.8120   26.1180 C   0  0  0  0  0  0  0  0  0  0  0  0
   30.8550   23.2820   24.9110 O   0  0  0  0  0  0  0  0  0  0  0  0
   29.8580   19.8110   26.9890 C   0  0  0  0  0  0  0  0  0  0  0  0
   28.6440   18.6160   28.8620 C   0  0  0  0  0  0  0  0  0  0  0  0
   27.4090   17.9950   28.7880 C   0  0  0  0  0  0  0  0  0  0  0  0
   26.5590   18.0060   29.8820 C   0  0  0  0  0  0  0  0  0  0  0  0
   26.9460   18.6380   31.0520 C   0  0  0  0  0  0  0  0  0  0  0  0
   28.1830   19.2600   31.1280 C   0  0  0  0  0  0  0  0  0  0  0  0
   29.0340   19.2460   30.0330 C   0  0  0  0  0  0  0  0  0  0  0  0
   29.1090   20.9620   27.1720 C   0  0  0  0  0  0  0  0  0  0  0  0
   29.4400   22.1160   26.4810 C   0  0  0  0  0  0  0  0  0  0  0  0
   30.5190   22.1170   25.6110 C   0  0  0  0  0  0  0  0  0  0  0  0
   31.2660   20.9650   25.4300 C   0  0  0  0  0  0  0  0  0  0  0  0
  2  3  2  0  0  0  0
  2  6  1  0  0  0  0
  2  7  1  0  0  0  0
  6  8  1  0  0  0  0
  1 10  1  0  0  0  0
  8 10  1  0  0  0  0
  1 11  1  0  0  0  0
  4 12  1  0  0  0  0
 11 12  2  0  0  0  0
 12 13  1  0  0  0  0
 13 14  2  0  0  0  0
 14 15  1  0  0  0  0
  5 16  1  0  0  0  0
 11 16  1  0  0  0  0
 15 16  2  0  0  0  0
 10 17  2  0  0  0  0
 17 18  1  0  0  0  0
  9 19  1  0  0  0  0
 18 19  2  0  0  0  0
  8 20  2  0  0  0  0
 19 20  1  0  0  0  0
M  END
$$$$
