7DXF
  PyMOL3.1          3D                             0

100112  0  0  0  0  0  0  0  0999 V2000
  124.1480  152.0300  160.1870 N   0  0  0  0  0  0  0  0  0  0  0  0
  126.1390  146.8490  162.1520 C   0  0  0  0  0  0  0  0  0  0  0  0
  125.9030  147.8150  163.2000 O   0  0  0  0  0  0  0  0  0  0  0  0
  125.4480  148.9730  162.6390 C   0  0  0  0  0  0  0  0  0  0  0  0
  125.3820  151.8050  158.1470 N   0  0  0  0  0  0  0  0  0  0  0  0
  126.4790  152.4700  154.9400 O   0  0  0  0  0  0  0  0  0  0  0  0
  125.0860  150.1780  163.2180 C   0  0  0  0  0  0  0  0  0  0  0  0
  127.5400  150.9330  156.1580 N   0  0  0  0  0  0  0  0  0  0  0  0
  125.7890  147.5110  160.9170 O   0  0  0  0  0  0  0  0  0  0  0  0
  124.6540  151.1850  162.3500 C   0  0  0  0  0  0  0  0  0  0  0  0
  124.5860  151.0070  160.9580 C   0  0  0  0  0  0  0  0  0  0  0  0
  124.9410  149.7920  160.3630 C   0  0  0  0  0  0  0  0  0  0  0  0
  125.3760  148.7810  161.2010 C   0  0  0  0  0  0  0  0  0  0  0  0
  124.8800  152.5390  159.1660 C   0  0  0  0  0  0  0  0  0  0  0  0
  126.0780  152.5690  157.2400 C   0  0  0  0  0  0  0  0  0  0  0  0
  126.1200  153.9460  157.5360 C   0  0  0  0  0  0  0  0  0  0  0  0
  126.7280  151.9840  156.0320 C   0  0  0  0  0  0  0  0  0  0  0  0
  128.5930  150.9100  157.1780 C   0  0  0  0  0  0  0  0  0  0  0  0
  128.8760  149.4840  157.6710 C   0  0  0  0  0  0  0  0  0  0  0  0
  129.1090  148.5060  156.5200 C   0  0  0  0  0  0  0  0  0  0  0  0
  128.7400  149.0930  155.1670 C   0  0  0  0  0  0  0  0  0  0  0  0
  127.3890  149.7890  155.2610 C   0  0  0  0  0  0  0  0  0  0  0  0
  128.6940  147.9910  154.1210 C   0  0  0  0  0  0  0  0  0  0  0  0
  127.8040  148.9660  158.6290 C   0  0  0  0  0  0  0  0  0  0  0  0
  125.2470  154.2130  159.0120 S   0  0  0  0  0  0  0  0  0  0  0  0
  152.0240  168.4470  160.1880 N   0  0  0  0  0  0  0  0  0  0  0  0
  146.8430  166.4560  162.1530 C   0  0  0  0  0  0  0  0  0  0  0  0
  147.8090  166.6930  163.2010 O   0  0  0  0  0  0  0  0  0  0  0  0
  148.9670  167.1480  162.6400 C   0  0  0  0  0  0  0  0  0  0  0  0
  151.7990  167.2140  158.1480 N   0  0  0  0  0  0  0  0  0  0  0  0
  152.4630  166.1170  154.9410 O   0  0  0  0  0  0  0  0  0  0  0  0
  150.1710  167.5090  163.2190 C   0  0  0  0  0  0  0  0  0  0  0  0
  150.9270  165.0560  156.1590 N   0  0  0  0  0  0  0  0  0  0  0  0
  147.5050  166.8070  160.9180 O   0  0  0  0  0  0  0  0  0  0  0  0
  151.1780  167.9420  162.3510 C   0  0  0  0  0  0  0  0  0  0  0  0
  151.0000  168.0100  160.9590 C   0  0  0  0  0  0  0  0  0  0  0  0
  149.7850  167.6550  160.3640 C   0  0  0  0  0  0  0  0  0  0  0  0
  148.7750  167.2200  161.2020 C   0  0  0  0  0  0  0  0  0  0  0  0
  152.5320  167.7160  159.1670 C   0  0  0  0  0  0  0  0  0  0  0  0
  152.5630  166.5180  157.2410 C   0  0  0  0  0  0  0  0  0  0  0  0
  153.9400  166.4750  157.5370 C   0  0  0  0  0  0  0  0  0  0  0  0
  151.9780  165.8680  156.0330 C   0  0  0  0  0  0  0  0  0  0  0  0
  150.9040  164.0030  157.1790 C   0  0  0  0  0  0  0  0  0  0  0  0
  149.4780  163.7200  157.6720 C   0  0  0  0  0  0  0  0  0  0  0  0
  148.5000  163.4870  156.5210 C   0  0  0  0  0  0  0  0  0  0  0  0
  149.0870  163.8560  155.1680 C   0  0  0  0  0  0  0  0  0  0  0  0
  149.7830  165.2070  155.2620 C   0  0  0  0  0  0  0  0  0  0  0  0
  147.9850  163.9020  154.1220 C   0  0  0  0  0  0  0  0  0  0  0  0
  148.9600  164.7920  158.6300 C   0  0  0  0  0  0  0  0  0  0  0  0
  154.2070  167.3490  159.0130 S   0  0  0  0  0  0  0  0  0  0  0  0
  140.5660  124.1550  160.1880 N   0  0  0  0  0  0  0  0  0  0  0  0
  145.7460  126.1460  162.1530 C   0  0  0  0  0  0  0  0  0  0  0  0
  144.7800  125.9090  163.2010 O   0  0  0  0  0  0  0  0  0  0  0  0
  143.6230  125.4550  162.6400 C   0  0  0  0  0  0  0  0  0  0  0  0
  140.7910  125.3880  158.1480 N   0  0  0  0  0  0  0  0  0  0  0  0
  140.1260  126.4850  154.9410 O   0  0  0  0  0  0  0  0  0  0  0  0
  142.4180  125.0930  163.2190 C   0  0  0  0  0  0  0  0  0  0  0  0
  141.6630  127.5460  156.1590 N   0  0  0  0  0  0  0  0  0  0  0  0
  145.0850  125.7950  160.9180 O   0  0  0  0  0  0  0  0  0  0  0  0
  141.4110  124.6600  162.3510 C   0  0  0  0  0  0  0  0  0  0  0  0
  141.5890  124.5920  160.9590 C   0  0  0  0  0  0  0  0  0  0  0  0
  142.8040  124.9470  160.3640 C   0  0  0  0  0  0  0  0  0  0  0  0
  143.8150  125.3830  161.2020 C   0  0  0  0  0  0  0  0  0  0  0  0
  140.0570  124.8860  159.1670 C   0  0  0  0  0  0  0  0  0  0  0  0
  140.0270  126.0840  157.2410 C   0  0  0  0  0  0  0  0  0  0  0  0
  138.6490  126.1270  157.5370 C   0  0  0  0  0  0  0  0  0  0  0  0
  140.6120  126.7340  156.0330 C   0  0  0  0  0  0  0  0  0  0  0  0
  141.6860  128.5990  157.1790 C   0  0  0  0  0  0  0  0  0  0  0  0
  143.1120  128.8820  157.6720 C   0  0  0  0  0  0  0  0  0  0  0  0
  144.0900  129.1150  156.5210 C   0  0  0  0  0  0  0  0  0  0  0  0
  143.5030  128.7460  155.1680 C   0  0  0  0  0  0  0  0  0  0  0  0
  142.8070  127.3950  155.2620 C   0  0  0  0  0  0  0  0  0  0  0  0
  144.6050  128.7000  154.1220 C   0  0  0  0  0  0  0  0  0  0  0  0
  143.6290  127.8110  158.6300 C   0  0  0  0  0  0  0  0  0  0  0  0
  138.3830  125.2530  159.0130 S   0  0  0  0  0  0  0  0  0  0  0  0
  168.4410  140.5720  160.1890 N   0  0  0  0  0  0  0  0  0  0  0  0
  166.4500  145.7530  162.1540 C   0  0  0  0  0  0  0  0  0  0  0  0
  166.6860  144.7870  163.2020 O   0  0  0  0  0  0  0  0  0  0  0  0
  167.1410  143.6290  162.6410 C   0  0  0  0  0  0  0  0  0  0  0  0
  167.2080  140.7970  158.1490 N   0  0  0  0  0  0  0  0  0  0  0  0
  166.1100  140.1330  154.9420 O   0  0  0  0  0  0  0  0  0  0  0  0
  167.5030  142.4240  163.2200 C   0  0  0  0  0  0  0  0  0  0  0  0
  165.0500  141.6690  156.1600 N   0  0  0  0  0  0  0  0  0  0  0  0
  166.8000  145.0910  160.9190 O   0  0  0  0  0  0  0  0  0  0  0  0
  167.9350  141.4180  162.3520 C   0  0  0  0  0  0  0  0  0  0  0  0
  168.0030  141.5960  160.9600 C   0  0  0  0  0  0  0  0  0  0  0  0
  167.6490  142.8100  160.3650 C   0  0  0  0  0  0  0  0  0  0  0  0
  167.2130  143.8210  161.2030 C   0  0  0  0  0  0  0  0  0  0  0  0
  167.7090  140.0630  159.1680 C   0  0  0  0  0  0  0  0  0  0  0  0
  166.5110  140.0330  157.2420 C   0  0  0  0  0  0  0  0  0  0  0  0
  166.4690  138.6560  157.5380 C   0  0  0  0  0  0  0  0  0  0  0  0
  165.8620  140.6180  156.0340 C   0  0  0  0  0  0  0  0  0  0  0  0
  163.9960  141.6920  157.1800 C   0  0  0  0  0  0  0  0  0  0  0  0
  163.7140  143.1180  157.6730 C   0  0  0  0  0  0  0  0  0  0  0  0
  163.4810  144.0960  156.5220 C   0  0  0  0  0  0  0  0  0  0  0  0
  163.8500  143.5090  155.1690 C   0  0  0  0  0  0  0  0  0  0  0  0
  165.2010  142.8130  155.2630 C   0  0  0  0  0  0  0  0  0  0  0  0
  163.8960  144.6110  154.1230 C   0  0  0  0  0  0  0  0  0  0  0  0
  164.7850  143.6360  158.6310 C   0  0  0  0  0  0  0  0  0  0  0  0
  167.3420  138.3890  159.0140 S   0  0  0  0  0  0  0  0  0  0  0  0
  2  3  1  0  0  0  0
  3  4  1  0  0  0  0
  4  7  1  0  0  0  0
  2  9  1  0  0  0  0
  7 10  2  0  0  0  0
  1 11  1  0  0  0  0
 10 11  1  0  0  0  0
 11 12  2  0  0  0  0
  4 13  2  0  0  0  0
  9 13  1  0  0  0  0
 12 13  1  0  0  0  0
  1 14  1  0  0  0  0
  5 14  2  0  0  0  0
  5 15  1  0  0  0  0
 15 16  2  0  0  0  0
  6 17  2  0  0  0  0
  8 17  1  0  0  0  0
 15 17  1  0  0  0  0
  8 18  1  0  0  0  0
 18 19  1  0  0  0  0
 19 20  1  0  0  0  0
 20 21  1  0  0  0  0
  8 22  1  0  0  0  0
 21 22  1  0  0  0  0
 21 23  1  0  0  0  0
 19 24  1  0  0  0  0
 14 25  1  0  0  0  0
 16 25  1  0  0  0  0
 27 28  1  0  0  0  0
 28 29  1  0  0  0  0
 29 32  1  0  0  0  0
 27 34  1  0  0  0  0
 32 35  2  0  0  0  0
 26 36  1  0  0  0  0
 35 36  1  0  0  0  0
 36 37  2  0  0  0  0
 29 38  2  0  0  0  0
 34 38  1  0  0  0  0
 37 38  1  0  0  0  0
 26 39  1  0  0  0  0
 30 39  2  0  0  0  0
 30 40  1  0  0  0  0
 40 41  2  0  0  0  0
 31 42  2  0  0  0  0
 33 42  1  0  0  0  0
 40 42  1  0  0  0  0
 33 43  1  0  0  0  0
 43 44  1  0  0  0  0
 44 45  1  0  0  0  0
 45 46  1  0  0  0  0
 33 47  1  0  0  0  0
 46 47  1  0  0  0  0
 46 48  1  0  0  0  0
 44 49  1  0  0  0  0
 39 50  1  0  0  0  0
 41 50  1  0  0  0  0
 52 53  1  0  0  0  0
 53 54  1  0  0  0  0
 54 57  1  0  0  0  0
 52 59  1  0  0  0  0
 57 60  2  0  0  0  0
 51 61  1  0  0  0  0
 60 61  1  0  0  0  0
 61 62  2  0  0  0  0
 54 63  2  0  0  0  0
 59 63  1  0  0  0  0
 62 63  1  0  0  0  0
 51 64  1  0  0  0  0
 55 64  2  0  0  0  0
 55 65  1  0  0  0  0
 65 66  2  0  0  0  0
 56 67  2  0  0  0  0
 58 67  1  0  0  0  0
 65 67  1  0  0  0  0
 58 68  1  0  0  0  0
 68 69  1  0  0  0  0
 69 70  1  0  0  0  0
 70 71  1  0  0  0  0
 58 72  1  0  0  0  0
 71 72  1  0  0  0  0
 71 73  1  0  0  0  0
 69 74  1  0  0  0  0
 64 75  1  0  0  0  0
 66 75  1  0  0  0  0
 77 78  1  0  0  0  0
 78 79  1  0  0  0  0
 79 82  1  0  0  0  0
 77 84  1  0  0  0  0
 82 85  2  0  0  0  0
 76 86  1  0  0  0  0
 85 86  1  0  0  0  0
 86 87  2  0  0  0  0
 79 88  2  0  0  0  0
 84 88  1  0  0  0  0
 87 88  1  0  0  0  0
 76 89  1  0  0  0  0
 80 89  2  0  0  0  0
 80 90  1  0  0  0  0
 90 91  2  0  0  0  0
 81 92  2  0  0  0  0
 83 92  1  0  0  0  0
 90 92  1  0  0  0  0
 83 93  1  0  0  0  0
 93 94  1  0  0  0  0
 94 95  1  0  0  0  0
 95 96  1  0  0  0  0
 83 97  1  0  0  0  0
 96 97  1  0  0  0  0
 96 98  1  0  0  0  0
 94 99  1  0  0  0  0
 89100  1  0  0  0  0
 91100  1  0  0  0  0
M  END
$$$$
