8R4V
  PyMOL3.1          3D                             0

 42 46  0  0  0  0  0  0  0  0999 V2000
   -8.2830   -7.0110   -5.7940 C   0  0  0  0  0  0  0  0  0  0  0  0
   -8.4470   -6.0760   -4.7990 C   0  0  0  0  0  0  0  0  0  0  0  0
   -7.2370   -6.8680   -6.6980 C   0  0  0  0  0  0  0  0  0  0  0  0
   -0.5000    1.7970   -3.1700 C   0  0  0  0  0  0  0  0  0  0  0  0
    0.9710    2.2920   -4.9650 C   0  0  0  0  0  0  0  0  0  0  0  0
   -1.5590    1.6580   -4.0370 C   0  0  0  0  0  0  0  0  0  0  0  0
   -0.0780    2.1450   -5.8370 C   0  0  0  0  0  0  0  0  0  0  0  0
   -1.8660   -2.3390   -3.2090 C   0  0  0  0  0  0  0  0  0  0  0  0
   -1.1820   -2.0020   -2.0500 C   0  0  0  0  0  0  0  0  0  0  0  0
   -3.2450   -1.2440   -1.0960 C   0  0  0  0  0  0  0  0  0  0  0  0
   -3.1210   -0.3740   -5.4710 C   0  0  0  0  0  0  0  0  0  0  0  0
   -4.4130   -0.8390   -7.6940 C   0  0  0  0  0  0  0  0  0  0  0  0
   -7.5880   -4.9940   -4.6920 C   0  0  0  0  0  0  0  0  0  0  0  0
   -6.3610   -5.8030   -6.5910 C   0  0  0  0  0  0  0  0  0  0  0  0
    0.7650    2.1110   -3.6250 C   0  0  0  0  0  0  0  0  0  0  0  0
   -1.3380    1.8340   -5.3840 C   0  0  0  0  0  0  0  0  0  0  0  0
   -3.2310   -2.1080   -3.3210 C   0  0  0  0  0  0  0  0  0  0  0  0
   -6.5340   -4.8560   -5.5920 C   0  0  0  0  0  0  0  0  0  0  0  0
   -1.8740   -1.4580   -0.9990 C   0  0  0  0  0  0  0  0  0  0  0  0
   -3.9230   -1.5620   -2.2580 C   0  0  0  0  0  0  0  0  0  0  0  0
   -3.0580    0.5260   -6.5050 C   0  0  0  0  0  0  0  0  0  0  0  0
   -3.8620   -1.5290   -5.5960 C   0  0  0  0  0  0  0  0  0  0  0  0
   -4.6980   -3.6100   -4.4580 C   0  0  0  0  0  0  0  0  0  0  0  0
    1.6930    3.4180   -1.8930 C   0  0  0  0  0  0  0  0  0  0  0  0
    3.0750    2.2810   -3.5330 C   0  0  0  0  0  0  0  0  0  0  0  0
    2.9480    3.4590   -1.0250 C   0  0  0  0  0  0  0  0  0  0  0  0
    4.2690    2.2900   -2.5960 C   0  0  0  0  0  0  0  0  0  0  0  0
   -7.8800   -4.0560   -3.5670 C   0  0  0  0  0  0  0  0  0  0  0  0
   -5.2660   -5.7460   -7.6160 C   0  0  0  0  0  0  0  0  0  0  0  0
    4.9540    2.4430   -0.3710 C   0  0  0  0  0  0  0  0  0  0  0  0
   -0.0770   -0.3120   -0.0320 C   0  0  0  0  0  0  0  0  0  0  0  0
   -5.8140   -1.2570   -1.0870 C   0  0  0  0  0  0  0  0  0  0  0  0
   -3.7200    0.3020   -7.6340 N   0  0  0  0  0  0  0  0  0  0  0  0
   -4.5240   -1.7660   -6.7250 N   0  0  0  0  0  0  0  0  0  0  0  0
    1.8460    2.2580   -2.7520 N   0  0  0  0  0  0  0  0  0  0  0  0
    3.7840    2.2660   -1.2260 N   0  0  0  0  0  0  0  0  0  0  0  0
   -2.3130    1.7210   -6.3560 N   0  0  0  0  0  0  0  0  0  0  0  0
   -5.6340   -3.7450   -5.4810 N   0  0  0  0  0  0  0  0  0  0  0  0
   -3.9120   -2.4410   -4.4940 N   0  0  0  0  0  0  0  0  0  0  0  0
   -4.5910   -4.4380   -3.5470 O   0  0  0  0  0  0  0  0  0  0  0  0
   -1.2110   -1.1520    0.1830 O   0  0  0  0  0  0  0  0  0  0  0  0
   -5.3020   -1.3590   -2.4280 O   0  0  0  0  0  0  0  0  0  0  0  0
  1  2  2  0  0  0  0
  1  3  1  0  0  0  0
  4  6  2  0  0  0  0
  5  7  1  0  0  0  0
  8  9  1  0  0  0  0
  2 13  1  0  0  0  0
  3 14  2  0  0  0  0
  4 15  1  0  0  0  0
  5 15  2  0  0  0  0
  6 16  1  0  0  0  0
  7 16  2  0  0  0  0
  8 17  2  0  0  0  0
 13 18  2  0  0  0  0
 14 18  1  0  0  0  0
  9 19  2  0  0  0  0
 10 19  1  0  0  0  0
 10 20  2  0  0  0  0
 17 20  1  0  0  0  0
 11 21  2  0  0  0  0
 11 22  1  0  0  0  0
 24 26  1  0  0  0  0
 25 27  1  0  0  0  0
 13 28  1  0  0  0  0
 14 29  1  0  0  0  0
 12 33  2  0  0  0  0
 21 33  1  0  0  0  0
 12 34  1  0  0  0  0
 22 34  2  0  0  0  0
 15 35  1  0  0  0  0
 24 35  1  0  0  0  0
 25 35  1  0  0  0  0
 26 36  1  0  0  0  0
 27 36  1  0  0  0  0
 30 36  1  0  0  0  0
 16 37  1  0  0  0  0
 21 37  1  0  0  0  0
 18 38  1  0  0  0  0
 23 38  1  0  0  0  0
 17 39  1  0  0  0  0
 22 39  1  0  0  0  0
 23 39  1  0  0  0  0
 23 40  2  0  0  0  0
 19 41  1  0  0  0  0
 31 41  1  0  0  0  0
 20 42  1  0  0  0  0
 32 42  1  0  0  0  0
M  END
$$$$
