8R4V
  PyMOL3.1          3D                             0

 42 46  0  0  0  0  0  0  0  0999 V2000
  -10.4100  -61.4520   -6.5410 C   0  0  0  0  0  0  0  0  0  0  0  0
  -10.1480  -60.4290   -5.6660 C   0  0  0  0  0  0  0  0  0  0  0  0
   -9.3870  -62.0080   -7.2850 C   0  0  0  0  0  0  0  0  0  0  0  0
    1.0970  -58.7450   -3.6910 C   0  0  0  0  0  0  0  0  0  0  0  0
    2.5330  -59.4570   -5.4410 C   0  0  0  0  0  0  0  0  0  0  0  0
    0.2050  -58.3130   -4.6430 C   0  0  0  0  0  0  0  0  0  0  0  0
    1.6440  -59.0260   -6.4180 C   0  0  0  0  0  0  0  0  0  0  0  0
   -2.7520  -61.5690   -3.9610 C   0  0  0  0  0  0  0  0  0  0  0  0
   -2.0730  -61.7550   -2.7880 C   0  0  0  0  0  0  0  0  0  0  0  0
   -3.1730  -59.8400   -1.7740 C   0  0  0  0  0  0  0  0  0  0  0  0
   -2.3900  -59.1640   -6.0270 C   0  0  0  0  0  0  0  0  0  0  0  0
   -3.6770  -58.6220   -8.2920 C   0  0  0  0  0  0  0  0  0  0  0  0
   -8.8510  -59.9650   -5.5390 C   0  0  0  0  0  0  0  0  0  0  0  0
   -8.0870  -61.5580   -7.1650 C   0  0  0  0  0  0  0  0  0  0  0  0
    2.2790  -59.3300   -4.0860 C   0  0  0  0  0  0  0  0  0  0  0  0
    0.4640  -58.4530   -5.9910 C   0  0  0  0  0  0  0  0  0  0  0  0
   -3.6450  -60.5080   -4.0200 C   0  0  0  0  0  0  0  0  0  0  0  0
   -7.8280  -60.5310   -6.2810 C   0  0  0  0  0  0  0  0  0  0  0  0
   -2.2840  -60.8960   -1.7280 C   0  0  0  0  0  0  0  0  0  0  0  0
   -3.8660  -59.6580   -2.9560 C   0  0  0  0  0  0  0  0  0  0  0  0
   -1.7730  -58.4670   -7.0380 C   0  0  0  0  0  0  0  0  0  0  0  0
   -3.7000  -59.5630   -6.2310 C   0  0  0  0  0  0  0  0  0  0  0  0
   -5.7210  -60.6150   -5.2060 C   0  0  0  0  0  0  0  0  0  0  0  0
    4.4880  -60.0920   -3.6800 C   0  0  0  0  0  0  0  0  0  0  0  0
    2.7400  -60.7530   -2.1430 C   0  0  0  0  0  0  0  0  0  0  0  0
    5.5490  -59.9850   -2.6030 C   0  0  0  0  0  0  0  0  0  0  0  0
    3.9610  -61.5480   -1.6920 C   0  0  0  0  0  0  0  0  0  0  0  0
   -8.6130  -58.8480   -4.5640 C   0  0  0  0  0  0  0  0  0  0  0  0
   -7.0080  -62.1850   -7.9950 C   0  0  0  0  0  0  0  0  0  0  0  0
    6.2030  -61.4890   -0.9840 C   0  0  0  0  0  0  0  0  0  0  0  0
   -0.5060  -60.1890   -0.6200 C   0  0  0  0  0  0  0  0  0  0  0  0
   -4.9190  -57.8550   -1.9640 C   0  0  0  0  0  0  0  0  0  0  0  0
   -2.4140  -58.2030   -8.1740 N   0  0  0  0  0  0  0  0  0  0  0  0
   -4.3560  -59.2790   -7.3620 N   0  0  0  0  0  0  0  0  0  0  0  0
    3.2080  -59.7440   -3.0770 N   0  0  0  0  0  0  0  0  0  0  0  0
    5.0850  -60.6570   -1.3990 N   0  0  0  0  0  0  0  0  0  0  0  0
   -0.4420  -58.0000   -6.9240 N   0  0  0  0  0  0  0  0  0  0  0  0
   -6.5070  -60.0650   -6.1740 N   0  0  0  0  0  0  0  0  0  0  0  0
   -4.3740  -60.2750   -5.2010 N   0  0  0  0  0  0  0  0  0  0  0  0
   -6.1960  -61.3800   -4.3880 O   0  0  0  0  0  0  0  0  0  0  0  0
   -1.5830  -61.1060   -0.5640 O   0  0  0  0  0  0  0  0  0  0  0  0
   -4.7970  -58.6250   -3.1530 O   0  0  0  0  0  0  0  0  0  0  0  0
  1  2  2  0  0  0  0
  1  3  1  0  0  0  0
  4  6  2  0  0  0  0
  5  7  1  0  0  0  0
  8  9  1  0  0  0  0
  2 13  1  0  0  0  0
  3 14  2  0  0  0  0
  4 15  1  0  0  0  0
  5 15  2  0  0  0  0
  6 16  1  0  0  0  0
  7 16  2  0  0  0  0
  8 17  2  0  0  0  0
 13 18  2  0  0  0  0
 14 18  1  0  0  0  0
  9 19  2  0  0  0  0
 10 19  1  0  0  0  0
 10 20  2  0  0  0  0
 17 20  1  0  0  0  0
 11 21  2  0  0  0  0
 11 22  1  0  0  0  0
 24 26  1  0  0  0  0
 25 27  1  0  0  0  0
 13 28  1  0  0  0  0
 14 29  1  0  0  0  0
 12 33  2  0  0  0  0
 21 33  1  0  0  0  0
 12 34  1  0  0  0  0
 22 34  2  0  0  0  0
 15 35  1  0  0  0  0
 24 35  1  0  0  0  0
 25 35  1  0  0  0  0
 26 36  1  0  0  0  0
 27 36  1  0  0  0  0
 30 36  1  0  0  0  0
 16 37  1  0  0  0  0
 21 37  1  0  0  0  0
 18 38  1  0  0  0  0
 23 38  1  0  0  0  0
 17 39  1  0  0  0  0
 22 39  1  0  0  0  0
 23 39  1  0  0  0  0
 23 40  2  0  0  0  0
 19 41  1  0  0  0  0
 31 41  1  0  0  0  0
 20 42  1  0  0  0  0
 32 42  1  0  0  0  0
M  END
$$$$
