7AMC
  PyMOL3.1          3D                             0

 62 68  0  0  0  0  0  0  0  0999 V2000
   18.6610   76.8350   54.8580 Cl  0  0  0  0  0  0  0  0  0  0  0  0
   19.8070   67.9740   49.5340 C   0  0  0  0  0  0  0  0  0  0  0  0
   19.5100   71.2450   53.1990 N   0  0  0  0  0  0  0  0  0  0  0  0
   21.2120   69.8700   47.5620 O   0  0  0  0  0  0  0  0  0  0  0  0
   19.9810   69.4170   49.9380 C   0  0  0  0  0  0  0  0  0  0  0  0
   21.4200   69.7390   49.8060 N   0  0  0  0  0  0  0  0  0  0  0  0
   26.2740   71.1730   59.2260 O   0  0  0  0  0  0  0  0  0  0  0  0
   19.4980   69.6880   51.3420 C   0  0  0  0  0  0  0  0  0  0  0  0
   28.0320   71.6750   58.0370 O   0  0  0  0  0  0  0  0  0  0  0  0
   20.1400   70.9140   51.9420 C   0  0  0  0  0  0  0  0  0  0  0  0
   19.3700   72.5790   53.5800 C   0  0  0  0  0  0  0  0  0  0  0  0
   18.3830   72.8850   54.5090 C   0  0  0  0  0  0  0  0  0  0  0  0
   18.2190   74.1830   54.9110 C   0  0  0  0  0  0  0  0  0  0  0  0
   18.9760   75.1830   54.3690 C   0  0  0  0  0  0  0  0  0  0  0  0
   19.9500   74.8910   53.4420 C   0  0  0  0  0  0  0  0  0  0  0  0
   20.1630   73.5780   53.0400 C   0  0  0  0  0  0  0  0  0  0  0  0
   21.6210   70.5640   52.1030 C   0  0  0  0  0  0  0  0  0  0  0  0
   22.3250   70.7410   53.2870 C   0  0  0  0  0  0  0  0  0  0  0  0
   23.6420   70.3210   53.3720 C   0  0  0  0  0  0  0  0  0  0  0  0
   24.2400   69.6400   52.3170 C   0  0  0  0  0  0  0  0  0  0  0  0
   23.5210   69.4310   51.1540 C   0  0  0  0  0  0  0  0  0  0  0  0
   22.2550   69.9220   51.0410 C   0  0  0  0  0  0  0  0  0  0  0  0
   21.9290   70.0230   48.5160 C   0  0  0  0  0  0  0  0  0  0  0  0
   23.3960   70.4330   48.3460 C   0  0  0  0  0  0  0  0  0  0  0  0
   24.4890   70.5390   54.6400 C   0  0  0  0  0  0  0  0  0  0  0  0
   25.8650   70.5970   54.5540 C   0  0  0  0  0  0  0  0  0  0  0  0
   26.6460   70.8320   55.6720 C   0  0  0  0  0  0  0  0  0  0  0  0
   26.0100   71.0720   56.8870 C   0  0  0  0  0  0  0  0  0  0  0  0
   24.6350   71.0480   56.9620 C   0  0  0  0  0  0  0  0  0  0  0  0
   23.8780   70.8140   55.8430 C   0  0  0  0  0  0  0  0  0  0  0  0
   26.8250   71.3130   58.1300 C   0  0  0  0  0  0  0  0  0  0  0  0
   48.0850   54.9070   66.7800 Cl  0  0  0  0  0  0  0  0  0  0  0  0
   37.7500   54.7720   68.6680 C   0  0  0  0  0  0  0  0  0  0  0  0
   42.6610   53.9000   68.9040 N   0  0  0  0  0  0  0  0  0  0  0  0
   37.7740   55.2810   65.6370 O   0  0  0  0  0  0  0  0  0  0  0  0
   39.0800   54.7810   67.9240 C   0  0  0  0  0  0  0  0  0  0  0  0
   39.0530   53.8310   66.8040 N   0  0  0  0  0  0  0  0  0  0  0  0
   45.5520   45.4530   68.0760 O   0  0  0  0  0  0  0  0  0  0  0  0
   40.2860   54.4920   68.8190 C   0  0  0  0  0  0  0  0  0  0  0  0
   44.3790   44.5470   66.4730 O   0  0  0  0  0  0  0  0  0  0  0  0
   41.4580   54.0130   68.0420 C   0  0  0  0  0  0  0  0  0  0  0  0
   43.9510   54.1680   68.3820 C   0  0  0  0  0  0  0  0  0  0  0  0
   44.9640   54.5850   69.2330 C   0  0  0  0  0  0  0  0  0  0  0  0
   46.2090   54.8130   68.6940 C   0  0  0  0  0  0  0  0  0  0  0  0
   46.4650   54.5970   67.3950 C   0  0  0  0  0  0  0  0  0  0  0  0
   45.4910   54.1870   66.5490 C   0  0  0  0  0  0  0  0  0  0  0  0
   44.2200   53.9530   67.0500 C   0  0  0  0  0  0  0  0  0  0  0  0
   41.0560   52.6250   67.4950 C   0  0  0  0  0  0  0  0  0  0  0  0
   41.7970   51.4640   67.6090 C   0  0  0  0  0  0  0  0  0  0  0  0
   41.2940   50.2460   67.1410 C   0  0  0  0  0  0  0  0  0  0  0  0
   40.0160   50.1880   66.5990 C   0  0  0  0  0  0  0  0  0  0  0  0
   39.2530   51.3250   66.4820 C   0  0  0  0  0  0  0  0  0  0  0  0
   39.7990   52.5560   66.8930 C   0  0  0  0  0  0  0  0  0  0  0  0
   38.3490   54.2360   65.6190 C   0  0  0  0  0  0  0  0  0  0  0  0
   38.3560   53.3110   64.4010 C   0  0  0  0  0  0  0  0  0  0  0  0
   42.1630   48.9850   67.2000 C   0  0  0  0  0  0  0  0  0  0  0  0
   41.8750   47.9080   66.3210 C   0  0  0  0  0  0  0  0  0  0  0  0
   42.6510   46.7790   66.3100 C   0  0  0  0  0  0  0  0  0  0  0  0
   43.7280   46.7160   67.1940 C   0  0  0  0  0  0  0  0  0  0  0  0
   44.0440   47.7560   68.0190 C   0  0  0  0  0  0  0  0  0  0  0  0
   43.2720   48.8910   68.0120 C   0  0  0  0  0  0  0  0  0  0  0  0
   44.6150   45.4900   67.2500 C   0  0  0  0  0  0  0  0  0  0  0  0
  2  5  1  0  0  0  0
  5  6  1  0  0  0  0
  5  8  1  0  0  0  0
  3 10  1  0  0  0  0
  8 10  1  0  0  0  0
  3 11  1  0  0  0  0
 11 12  2  0  0  0  0
 12 13  1  0  0  0  0
  1 14  1  0  0  0  0
 13 14  2  0  0  0  0
 14 15  1  0  0  0  0
 11 16  1  0  0  0  0
 15 16  2  0  0  0  0
 10 17  1  0  0  0  0
 17 18  2  0  0  0  0
 18 19  1  0  0  0  0
 19 20  2  0  0  0  0
 20 21  1  0  0  0  0
  6 22  1  0  0  0  0
 17 22  1  0  0  0  0
 21 22  2  0  0  0  0
  4 23  2  0  0  0  0
  6 23  1  0  0  0  0
 23 24  1  0  0  0  0
 19 25  1  0  0  0  0
 25 26  2  0  0  0  0
 26 27  1  0  0  0  0
 27 28  2  0  0  0  0
 28 29  1  0  0  0  0
 25 30  1  0  0  0  0
 29 30  2  0  0  0  0
  7 31  2  0  0  0  0
  9 31  1  0  0  0  0
 28 31  1  0  0  0  0
 33 36  1  0  0  0  0
 36 37  1  0  0  0  0
 36 39  1  0  0  0  0
 34 41  1  0  0  0  0
 39 41  1  0  0  0  0
 34 42  1  0  0  0  0
 42 43  2  0  0  0  0
 43 44  1  0  0  0  0
 32 45  1  0  0  0  0
 44 45  2  0  0  0  0
 45 46  1  0  0  0  0
 42 47  1  0  0  0  0
 46 47  2  0  0  0  0
 41 48  1  0  0  0  0
 48 49  2  0  0  0  0
 49 50  1  0  0  0  0
 50 51  2  0  0  0  0
 51 52  1  0  0  0  0
 37 53  1  0  0  0  0
 48 53  1  0  0  0  0
 52 53  2  0  0  0  0
 35 54  2  0  0  0  0
 37 54  1  0  0  0  0
 54 55  1  0  0  0  0
 50 56  1  0  0  0  0
 56 57  2  0  0  0  0
 57 58  1  0  0  0  0
 58 59  2  0  0  0  0
 59 60  1  0  0  0  0
 56 61  1  0  0  0  0
 60 61  2  0  0  0  0
 38 62  2  0  0  0  0
 40 62  1  0  0  0  0
 59 62  1  0  0  0  0
M  END
$$$$
