7R6J
  PyMOL3.1          3D                             0

 33 36  0  0  0  0  0  0  0  0999 V2000
   -6.9890  -42.2610  -31.8040 C   0  0  0  0  0  0  0  0  0  0  0  0
   -7.2780  -40.0050  -32.7770 N   0  0  0  0  0  0  0  0  0  0  0  0
   -7.6900  -43.4930  -31.5730 O   0  0  0  0  0  0  0  0  0  0  0  0
   -5.8170  -42.4940  -32.6760 C   0  0  0  0  0  0  0  0  0  0  0  0
   -6.9570  -38.6720  -38.3860 N   0  0  0  0  0  0  0  0  0  0  0  0
   -4.9590  -43.4220  -31.8920 O   0  0  0  0  0  0  0  0  0  0  0  0
   -5.1250  -41.2240  -32.9450 C   0  0  0  0  0  0  0  0  0  0  0  0
   -9.7930  -34.4940  -37.6740 N   0  0  0  0  0  0  0  0  0  0  0  0
   -3.9760  -41.4620  -33.8220 O   0  0  0  0  0  0  0  0  0  0  0  0
   -6.1330  -40.2970  -33.6930 C   0  0  0  0  0  0  0  0  0  0  0  0
   -8.3880  -32.7390  -37.2590 N   0  0  0  0  0  0  0  0  0  0  0  0
   -8.7630  -40.3000  -30.3830 O   0  0  0  0  0  0  0  0  0  0  0  0
   -7.9940  -41.2530  -32.4640 C   0  0  0  0  0  0  0  0  0  0  0  0
   -9.1880  -41.0430  -31.4370 C   0  0  0  0  0  0  0  0  0  0  0  0
   -7.9860  -39.0060  -33.1800 C   0  0  0  0  0  0  0  0  0  0  0  0
   -8.7540  -39.2120  -34.5880 C   0  0  0  0  0  0  0  0  0  0  0  0
   -8.1730  -38.9370  -35.8220 C   0  0  0  0  0  0  0  0  0  0  0  0
   -8.9240  -39.2170  -37.0160 C   0  0  0  0  0  0  0  0  0  0  0  0
   -8.3870  -38.9530  -38.4380 C   0  0  0  0  0  0  0  0  0  0  0  0
   -6.6190  -37.2590  -38.3450 C   0  0  0  0  0  0  0  0  0  0  0  0
   -5.3280  -36.8470  -38.6490 C   0  0  0  0  0  0  0  0  0  0  0  0
   -5.0310  -35.4860  -38.6130 C   0  0  0  0  0  0  0  0  0  0  0  0
   -3.5540  -35.0810  -38.9400 C   0  0  0  0  0  0  0  0  0  0  0  0
   -6.0600  -34.5480  -38.2800 C   0  0  0  0  0  0  0  0  0  0  0  0
   -7.3660  -34.9770  -37.9740 C   0  0  0  0  0  0  0  0  0  0  0  0
   -8.5690  -34.0190  -37.6090 C   0  0  0  0  0  0  0  0  0  0  0  0
  -10.8790  -33.7450  -37.4020 C   0  0  0  0  0  0  0  0  0  0  0  0
  -10.7120  -32.4030  -37.0300 C   0  0  0  0  0  0  0  0  0  0  0  0
   -9.4270  -31.9230  -36.9630 C   0  0  0  0  0  0  0  0  0  0  0  0
   -7.6450  -36.3460  -38.0260 C   0  0  0  0  0  0  0  0  0  0  0  0
  -10.2210  -39.7120  -36.9630 C   0  0  0  0  0  0  0  0  0  0  0  0
  -10.7790  -40.0090  -35.7510 C   0  0  0  0  0  0  0  0  0  0  0  0
  -10.0300  -39.7420  -34.5610 C   0  0  0  0  0  0  0  0  0  0  0  0
  1  3  1  0  0  0  0
  1  4  1  0  0  0  0
  4  6  1  0  0  0  0
  4  7  1  0  0  0  0
  7  9  1  0  0  0  0
  2 10  1  0  0  0  0
  7 10  1  0  0  0  0
  1 13  1  0  0  0  0
  2 13  1  0  0  0  0
 12 14  1  0  0  0  0
 13 14  1  0  0  0  0
  2 15  1  0  0  0  0
 15 16  1  0  0  0  0
 16 17  2  0  0  0  0
 17 18  1  0  0  0  0
  5 19  1  0  0  0  0
 18 19  1  0  0  0  0
  5 20  1  0  0  0  0
 20 21  2  0  0  0  0
 21 22  1  0  0  0  0
 22 23  1  0  0  0  0
 22 24  2  0  0  0  0
 24 25  1  0  0  0  0
  8 26  2  0  0  0  0
 11 26  1  0  0  0  0
 25 26  1  0  0  0  0
  8 27  1  0  0  0  0
 27 28  2  0  0  0  0
 11 29  2  0  0  0  0
 28 29  1  0  0  0  0
 20 30  1  0  0  0  0
 25 30  2  0  0  0  0
 18 31  2  0  0  0  0
 31 32  1  0  0  0  0
 16 33  1  0  0  0  0
 32 33  2  0  0  0  0
M  END
$$$$
