8W9A
  PyMOL3.1          3D                             0

 57 61  0  0  0  0  0  0  0  0999 V2000
   89.6840   63.0400   98.7750 Cl  0  0  0  0  0  0  0  0  0  0  0  0
   82.2370   66.0360   97.0970 C   0  0  0  0  0  0  0  0  0  0  0  0
   83.7030   65.8180   96.8870 C   0  0  0  0  0  0  0  0  0  0  0  0
   84.0690   64.5400   97.4590 N   0  0  0  0  0  0  0  0  0  0  0  0
   85.4490   64.1950   97.7700 C   0  0  0  0  0  0  0  0  0  0  0  0
   86.4790   64.9300   97.2610 C   0  0  0  0  0  0  0  0  0  0  0  0
   87.7710   64.5710   97.5780 C   0  0  0  0  0  0  0  0  0  0  0  0
   88.0140   63.4940   98.3890 C   0  0  0  0  0  0  0  0  0  0  0  0
   87.0040   62.8120   98.8540 N   0  0  0  0  0  0  0  0  0  0  0  0
   85.7570   63.1190   98.5710 C   0  0  0  0  0  0  0  0  0  0  0  0
   84.6600   62.2800   99.1660 C   0  0  0  0  0  0  0  0  0  0  0  0
   83.4780   62.6850   99.1120 O   0  0  0  0  0  0  0  0  0  0  0  0
   84.9610   61.1950   99.7160 O   0  0  0  0  0  0  0  0  0  0  0  0
   83.8670   65.9420   95.3790 C   0  0  0  0  0  0  0  0  0  0  0  0
   84.0400   67.2120   94.8170 C   0  0  0  0  0  0  0  0  0  0  0  0
   84.1930   67.3560   93.4760 C   0  0  0  0  0  0  0  0  0  0  0  0
   84.1710   66.2530   92.6480 C   0  0  0  0  0  0  0  0  0  0  0  0
   83.9850   65.0010   93.1840 C   0  0  0  0  0  0  0  0  0  0  0  0
   83.9410   63.8060   92.2570 C   0  0  0  0  0  0  0  0  0  0  0  0
   83.8270   64.8390   94.5480 C   0  0  0  0  0  0  0  0  0  0  0  0
   84.3930   68.7220   92.8670 C   0  0  0  0  0  0  0  0  0  0  0  0
   84.5100   68.7670   91.7010 O   0  0  0  0  0  0  0  0  0  0  0  0
   84.4280   69.8960   93.6830 N   0  0  0  0  0  0  0  0  0  0  0  0
   84.6070   71.1790   93.0540 C   0  0  0  0  0  0  0  0  0  0  0  0
   84.2700   69.7520   95.1190 C   0  0  0  0  0  0  0  0  0  0  0  0
   84.2800   70.7950   96.1250 N   0  0  0  0  0  0  0  0  0  0  0  0
   84.4490   72.2210   96.0370 C   0  0  0  0  0  0  0  0  0  0  0  0
   84.4010   72.8060   97.4480 C   0  0  0  0  0  0  0  0  0  0  0  0
   84.1940   71.7730   98.3200 C   0  0  0  0  0  0  0  0  0  0  0  0
   84.1030   72.0830   99.6690 C   0  0  0  0  0  0  0  0  0  0  0  0
   84.2270   73.3950  100.0750 C   0  0  0  0  0  0  0  0  0  0  0  0
   84.4310   74.3640   99.2070 N   0  0  0  0  0  0  0  0  0  0  0  0
   84.5180   74.1030   97.9230 C   0  0  0  0  0  0  0  0  0  0  0  0
   84.1090   70.4880   97.5060 C   0  0  0  0  0  0  0  0  0  0  0  0
   84.0800   68.4190   95.6710 N   0  0  0  0  0  0  0  0  0  0  0  0
   82.0560   66.9770   97.1440 H   0  0  0  0  0  0  0  0  0  0  0  0
   81.7730   65.6610   96.3490 H   0  0  0  0  0  0  0  0  0  0  0  0
   81.9770   65.6060   97.9090 H   0  0  0  0  0  0  0  0  0  0  0  0
   84.1840   66.4990   97.3500 H   0  0  0  0  0  0  0  0  0  0  0  0
   83.4470   63.9870   97.6300 H   0  0  0  0  0  0  0  0  0  0  0  0
   86.3030   65.6510   96.7260 H   0  0  0  0  0  0  0  0  0  0  0  0
   88.4720   65.0580   97.2410 H   0  0  0  0  0  0  0  0  0  0  0  0
   84.2700   66.3640   91.7420 H   0  0  0  0  0  0  0  0  0  0  0  0
   84.6690   63.8570   91.6300 H   0  0  0  0  0  0  0  0  0  0  0  0
   83.1060   63.8300   91.7820 H   0  0  0  0  0  0  0  0  0  0  0  0
   83.9870   62.9890   92.7620 H   0  0  0  0  0  0  0  0  0  0  0  0
   83.7090   63.9930   94.8970 H   0  0  0  0  0  0  0  0  0  0  0  0
   85.4620   71.5430   93.2990 H   0  0  0  0  0  0  0  0  0  0  0  0
   83.9050   71.7620   93.3550 H   0  0  0  0  0  0  0  0  0  0  0  0
   84.5370   71.1070   92.1000 H   0  0  0  0  0  0  0  0  0  0  0  0
   85.3280   72.4140   95.6810 H   0  0  0  0  0  0  0  0  0  0  0  0
   83.7210   72.5820   95.5160 H   0  0  0  0  0  0  0  0  0  0  0  0
   83.9650   71.4120  100.2920 H   0  0  0  0  0  0  0  0  0  0  0  0
   84.1670   73.5960  100.9740 H   0  0  0  0  0  0  0  0  0  0  0  0
   84.6530   74.7940   97.3210 H   0  0  0  0  0  0  0  0  0  0  0  0
   83.2340   70.1040   97.6170 H   0  0  0  0  0  0  0  0  0  0  0  0
   84.7980   69.8740   97.7870 H   0  0  0  0  0  0  0  0  0  0  0  0
  2  3  1  0  0  0  0
  3  4  1  0  0  0  0
  4  5  1  0  0  0  0
  5  6  1  0  0  0  0
  6  7  2  0  0  0  0
  1  8  1  0  0  0  0
  7  8  1  0  0  0  0
  8  9  2  0  0  0  0
  5 10  2  0  0  0  0
  9 10  1  0  0  0  0
 10 11  1  0  0  0  0
 11 12  2  0  0  0  0
 11 13  1  0  0  0  0
  3 14  1  0  0  0  0
 14 15  1  0  0  0  0
 15 16  2  0  0  0  0
 16 17  1  0  0  0  0
 17 18  2  0  0  0  0
 18 19  1  0  0  0  0
 14 20  2  0  0  0  0
 18 20  1  0  0  0  0
 16 21  1  0  0  0  0
 21 22  2  0  0  0  0
 21 23  1  0  0  0  0
 23 24  1  0  0  0  0
 23 25  1  0  0  0  0
 25 26  1  0  0  0  0
 26 27  1  0  0  0  0
 27 28  1  0  0  0  0
 28 29  1  0  0  0  0
 29 30  2  0  0  0  0
 30 31  1  0  0  0  0
 31 32  2  0  0  0  0
 28 33  2  0  0  0  0
 32 33  1  0  0  0  0
 26 34  1  0  0  0  0
 29 34  1  0  0  0  0
 15 35  1  0  0  0  0
 25 35  2  0  0  0  0
  2 36  1  0  0  0  0
  2 37  1  0  0  0  0
  2 38  1  0  0  0  0
  3 39  1  0  0  0  0
  4 40  1  0  0  0  0
  6 41  1  0  0  0  0
  7 42  1  0  0  0  0
 17 43  1  0  0  0  0
 19 44  1  0  0  0  0
 19 45  1  0  0  0  0
 19 46  1  0  0  0  0
 20 47  1  0  0  0  0
 24 48  1  0  0  0  0
 24 49  1  0  0  0  0
 24 50  1  0  0  0  0
 27 51  1  0  0  0  0
 27 52  1  0  0  0  0
 30 53  1  0  0  0  0
 31 54  1  0  0  0  0
 33 55  1  0  0  0  0
 34 56  1  0  0  0  0
 34 57  1  0  0  0  0
M  END
$$$$
