8GFA
  PyMOL3.1          3D                             0

 34 35  0  0  0  0  0  0  0  0999 V2000
  126.5320  102.6920   80.5840 Cl  0  0  0  0  0  0  0  0  0  0  0  0
  126.8740  108.7630   93.8960 C   0  0  0  0  0  0  0  0  0  0  0  0
  126.8190  108.4210   92.5230 O   0  0  0  0  0  0  0  0  0  0  0  0
  125.7620  107.6630   92.1040 C   0  0  0  0  0  0  0  0  0  0  0  0
  124.6790  107.2960   92.8810 C   0  0  0  0  0  0  0  0  0  0  0  0
  123.7190  106.4600   92.3450 C   0  0  0  0  0  0  0  0  0  0  0  0
  123.8360  105.9930   91.0510 C   0  0  0  0  0  0  0  0  0  0  0  0
  124.9220  106.3660   90.2810 C   0  0  0  0  0  0  0  0  0  0  0  0
  125.1340  105.9190   88.9700 N   0  0  0  0  0  0  0  0  0  0  0  0
  124.8200  104.7440   88.4090 C   0  0  0  0  0  0  0  0  0  0  0  0
  124.2530  103.8330   89.0120 O   0  0  0  0  0  0  0  0  0  0  0  0
  125.2290  104.6450   86.9970 C   0  0  0  0  0  0  0  0  0  0  0  0
  125.0830  103.5440   86.3040 C   0  0  0  0  0  0  0  0  0  0  0  0
  125.4510  103.3470   84.9110 C   0  0  0  0  0  0  0  0  0  0  0  0
  125.2640  102.1130   84.3040 C   0  0  0  0  0  0  0  0  0  0  0  0
  125.5980  101.9060   82.9810 C   0  0  0  0  0  0  0  0  0  0  0  0
  126.1260  102.9420   82.2550 C   0  0  0  0  0  0  0  0  0  0  0  0
  126.3270  104.1750   82.8190 C   0  0  0  0  0  0  0  0  0  0  0  0
  125.9880  104.3720   84.1410 C   0  0  0  0  0  0  0  0  0  0  0  0
  125.8900  107.2050   90.8090 C   0  0  0  0  0  0  0  0  0  0  0  0
  125.6240  105.4580   86.6510 H   0  0  0  0  0  0  0  0  0  0  0  0
  124.7060  102.7560   86.7300 H   0  0  0  0  0  0  0  0  0  0  0  0
  126.7130  104.9070   82.3090 H   0  0  0  0  0  0  0  0  0  0  0  0
  126.1200  105.2540   84.5250 H   0  0  0  0  0  0  0  0  0  0  0  0
  126.6710  107.4790   90.2970 H   0  0  0  0  0  0  0  0  0  0  0  0
  126.9210  107.9700   94.4620 H   0  0  0  0  0  0  0  0  0  0  0  0
  126.1240  109.3290   94.1550 H   0  0  0  0  0  0  0  0  0  0  0  0
  127.6970  109.2670   94.0240 H   0  0  0  0  0  0  0  0  0  0  0  0
  124.9030  101.3750   84.8240 H   0  0  0  0  0  0  0  0  0  0  0  0
  125.4650  101.0300   82.5770 H   0  0  0  0  0  0  0  0  0  0  0  0
  124.5610  107.5960   93.7990 H   0  0  0  0  0  0  0  0  0  0  0  0
  122.9500  106.2110   92.8840 H   0  0  0  0  0  0  0  0  0  0  0  0
  123.1620  105.3870   90.7040 H   0  0  0  0  0  0  0  0  0  0  0  0
  125.5420  106.4940   88.4620 H   0  0  0  0  0  0  0  0  0  0  0  0
  2  3  1  0  0  0  0
  3  4  1  0  0  0  0
  4  5  2  0  0  0  0
  5  6  1  0  0  0  0
  6  7  2  0  0  0  0
  7  8  1  0  0  0  0
  8  9  1  0  0  0  0
  9 10  1  0  0  0  0
 10 11  2  0  0  0  0
 10 12  1  0  0  0  0
 12 13  2  0  0  0  0
 13 14  1  0  0  0  0
 14 15  1  0  0  0  0
 15 16  2  0  0  0  0
  1 17  1  0  0  0  0
 16 17  1  0  0  0  0
 17 18  2  0  0  0  0
 14 19  2  0  0  0  0
 18 19  1  0  0  0  0
  4 20  1  0  0  0  0
  8 20  2  0  0  0  0
 12 21  1  0  0  0  0
 13 22  1  0  0  0  0
 18 23  1  0  0  0  0
 19 24  1  0  0  0  0
 20 25  1  0  0  0  0
  2 26  1  0  0  0  0
  2 27  1  0  0  0  0
  2 28  1  0  0  0  0
 15 29  1  0  0  0  0
 16 30  1  0  0  0  0
  5 31  1  0  0  0  0
  6 32  1  0  0  0  0
  7 33  1  0  0  0  0
  9 34  1  0  0  0  0
M  END
$$$$
