8GFA
  PyMOL3.1          3D                             0

 34 35  0  0  0  0  0  0  0  0999 V2000
   79.8660  103.7090   80.5630 Cl  0  0  0  0  0  0  0  0  0  0  0  0
   79.5260   97.6400   93.8760 C   0  0  0  0  0  0  0  0  0  0  0  0
   79.5790   97.9860   92.5030 O   0  0  0  0  0  0  0  0  0  0  0  0
   80.6350   98.7430   92.0850 C   0  0  0  0  0  0  0  0  0  0  0  0
   81.7190   99.1090   92.8610 C   0  0  0  0  0  0  0  0  0  0  0  0
   82.6790   99.9450   92.3260 C   0  0  0  0  0  0  0  0  0  0  0  0
   82.5610  100.4130   91.0320 C   0  0  0  0  0  0  0  0  0  0  0  0
   81.4750  100.0420   90.2630 C   0  0  0  0  0  0  0  0  0  0  0  0
   81.2620  100.4890   88.9520 N   0  0  0  0  0  0  0  0  0  0  0  0
   81.5760  101.6630   88.3900 C   0  0  0  0  0  0  0  0  0  0  0  0
   82.1430  102.5750   88.9930 O   0  0  0  0  0  0  0  0  0  0  0  0
   81.1680  101.7610   86.9780 C   0  0  0  0  0  0  0  0  0  0  0  0
   81.3140  102.8620   86.2840 C   0  0  0  0  0  0  0  0  0  0  0  0
   80.9450  103.0570   84.8900 C   0  0  0  0  0  0  0  0  0  0  0  0
   81.1290  104.2920   84.2840 C   0  0  0  0  0  0  0  0  0  0  0  0
   80.7950  104.4980   82.9610 C   0  0  0  0  0  0  0  0  0  0  0  0
   80.2690  103.4610   82.2350 C   0  0  0  0  0  0  0  0  0  0  0  0
   80.0710  102.2280   82.7980 C   0  0  0  0  0  0  0  0  0  0  0  0
   80.4100  102.0310   84.1210 C   0  0  0  0  0  0  0  0  0  0  0  0
   80.5070   99.2030   90.7900 C   0  0  0  0  0  0  0  0  0  0  0  0
   80.7720  100.9480   86.6330 H   0  0  0  0  0  0  0  0  0  0  0  0
   81.6920  103.6500   86.7080 H   0  0  0  0  0  0  0  0  0  0  0  0
   79.6870  101.4940   82.2880 H   0  0  0  0  0  0  0  0  0  0  0  0
   80.2820  101.1480   84.5040 H   0  0  0  0  0  0  0  0  0  0  0  0
   79.7250   98.9300   90.2790 H   0  0  0  0  0  0  0  0  0  0  0  0
   79.4800   98.4320   94.4440 H   0  0  0  0  0  0  0  0  0  0  0  0
   80.2760   97.0730   94.1320 H   0  0  0  0  0  0  0  0  0  0  0  0
   78.7030   97.1360   94.0040 H   0  0  0  0  0  0  0  0  0  0  0  0
   81.4900  105.0300   84.8030 H   0  0  0  0  0  0  0  0  0  0  0  0
   80.9270  105.3740   82.5570 H   0  0  0  0  0  0  0  0  0  0  0  0
   81.8380   98.8080   93.7790 H   0  0  0  0  0  0  0  0  0  0  0  0
   83.4480  100.1940   92.8640 H   0  0  0  0  0  0  0  0  0  0  0  0
   83.2360  101.0200   90.6840 H   0  0  0  0  0  0  0  0  0  0  0  0
   80.8550   99.9130   88.4440 H   0  0  0  0  0  0  0  0  0  0  0  0
  2  3  1  0  0  0  0
  3  4  1  0  0  0  0
  4  5  2  0  0  0  0
  5  6  1  0  0  0  0
  6  7  2  0  0  0  0
  7  8  1  0  0  0  0
  8  9  1  0  0  0  0
  9 10  1  0  0  0  0
 10 11  2  0  0  0  0
 10 12  1  0  0  0  0
 12 13  2  0  0  0  0
 13 14  1  0  0  0  0
 14 15  1  0  0  0  0
 15 16  2  0  0  0  0
  1 17  1  0  0  0  0
 16 17  1  0  0  0  0
 17 18  2  0  0  0  0
 14 19  2  0  0  0  0
 18 19  1  0  0  0  0
  4 20  1  0  0  0  0
  8 20  2  0  0  0  0
 12 21  1  0  0  0  0
 13 22  1  0  0  0  0
 18 23  1  0  0  0  0
 19 24  1  0  0  0  0
 20 25  1  0  0  0  0
  2 26  1  0  0  0  0
  2 27  1  0  0  0  0
  2 28  1  0  0  0  0
 15 29  1  0  0  0  0
 16 30  1  0  0  0  0
  5 31  1  0  0  0  0
  6 32  1  0  0  0  0
  7 33  1  0  0  0  0
  9 34  1  0  0  0  0
M  END
$$$$
