8GFA
  PyMOL3.1          3D                             0

 34 35  0  0  0  0  0  0  0  0999 V2000
  102.6810   79.9020   80.5940 Cl  0  0  0  0  0  0  0  0  0  0  0  0
  108.7520   79.5530   93.9010 C   0  0  0  0  0  0  0  0  0  0  0  0
  108.4070   79.6080   92.5280 O   0  0  0  0  0  0  0  0  0  0  0  0
  107.6490   80.6640   92.1110 C   0  0  0  0  0  0  0  0  0  0  0  0
  107.2810   81.7470   92.8880 C   0  0  0  0  0  0  0  0  0  0  0  0
  106.4440   82.7060   92.3530 C   0  0  0  0  0  0  0  0  0  0  0  0
  105.9770   82.5890   91.0590 C   0  0  0  0  0  0  0  0  0  0  0  0
  106.3500   81.5040   90.2890 C   0  0  0  0  0  0  0  0  0  0  0  0
  105.9010   81.2890   88.9790 N   0  0  0  0  0  0  0  0  0  0  0  0
  104.7250   81.6000   88.4210 C   0  0  0  0  0  0  0  0  0  0  0  0
  103.8140   82.1660   89.0260 O   0  0  0  0  0  0  0  0  0  0  0  0
  104.6240   81.1910   87.0090 C   0  0  0  0  0  0  0  0  0  0  0  0
  103.5200   81.3330   86.3200 C   0  0  0  0  0  0  0  0  0  0  0  0
  103.3230   80.9650   84.9270 C   0  0  0  0  0  0  0  0  0  0  0  0
  102.0880   81.1460   84.3200 C   0  0  0  0  0  0  0  0  0  0  0  0
  101.8840   80.8130   82.9960 C   0  0  0  0  0  0  0  0  0  0  0  0
  102.9240   80.2930   82.2700 C   0  0  0  0  0  0  0  0  0  0  0  0
  104.1580   80.0990   82.8340 C   0  0  0  0  0  0  0  0  0  0  0  0
  104.3520   80.4360   84.1570 C   0  0  0  0  0  0  0  0  0  0  0  0
  107.1910   80.5360   90.8160 C   0  0  0  0  0  0  0  0  0  0  0  0
  105.4370   80.7980   86.6630 H   0  0  0  0  0  0  0  0  0  0  0  0
  102.7310   81.7070   86.7470 H   0  0  0  0  0  0  0  0  0  0  0  0
  104.8920   79.7150   82.3250 H   0  0  0  0  0  0  0  0  0  0  0  0
  105.2340   80.3070   84.5420 H   0  0  0  0  0  0  0  0  0  0  0  0
  107.4670   79.7560   90.3030 H   0  0  0  0  0  0  0  0  0  0  0  0
  107.9600   79.5110   94.4690 H   0  0  0  0  0  0  0  0  0  0  0  0
  109.3220   80.3010   94.1560 H   0  0  0  0  0  0  0  0  0  0  0  0
  109.2520   78.7280   94.0290 H   0  0  0  0  0  0  0  0  0  0  0  0
  101.3480   81.5020   84.8400 H   0  0  0  0  0  0  0  0  0  0  0  0
  101.0080   80.9410   82.5930 H   0  0  0  0  0  0  0  0  0  0  0  0
  107.5810   81.8660   93.8060 H   0  0  0  0  0  0  0  0  0  0  0  0
  106.1920   83.4750   92.8910 H   0  0  0  0  0  0  0  0  0  0  0  0
  105.3700   83.2620   90.7110 H   0  0  0  0  0  0  0  0  0  0  0  0
  106.4760   80.8810   88.4710 H   0  0  0  0  0  0  0  0  0  0  0  0
  2  3  1  0  0  0  0
  3  4  1  0  0  0  0
  4  5  2  0  0  0  0
  5  6  1  0  0  0  0
  6  7  2  0  0  0  0
  7  8  1  0  0  0  0
  8  9  1  0  0  0  0
  9 10  1  0  0  0  0
 10 11  2  0  0  0  0
 10 12  1  0  0  0  0
 12 13  2  0  0  0  0
 13 14  1  0  0  0  0
 14 15  1  0  0  0  0
 15 16  2  0  0  0  0
  1 17  1  0  0  0  0
 16 17  1  0  0  0  0
 17 18  2  0  0  0  0
 14 19  2  0  0  0  0
 18 19  1  0  0  0  0
  4 20  1  0  0  0  0
  8 20  2  0  0  0  0
 12 21  1  0  0  0  0
 13 22  1  0  0  0  0
 18 23  1  0  0  0  0
 19 24  1  0  0  0  0
 20 25  1  0  0  0  0
  2 26  1  0  0  0  0
  2 27  1  0  0  0  0
  2 28  1  0  0  0  0
 15 29  1  0  0  0  0
 16 30  1  0  0  0  0
  5 31  1  0  0  0  0
  6 32  1  0  0  0  0
  7 33  1  0  0  0  0
  9 34  1  0  0  0  0
M  END
$$$$
