8DD2
  PyMOL3.1          3D                             0

 23 25  0  0  0  0  0  0  0  0999 V2000
  110.4620  133.8300  103.5270 C   0  0  0  0  0  0  0  0  0  0  0  0
  110.4680  134.9280  104.6140 C   0  0  0  0  0  0  0  0  0  0  0  0
  109.3360  135.7170  104.8100 C   0  0  0  0  0  0  0  0  0  0  0  0
  109.3320  136.7090  105.7980 C   0  0  0  0  0  0  0  0  0  0  0  0
  110.4620  136.9050  106.5810 C   0  0  0  0  0  0  0  0  0  0  0  0
  111.5920  136.1140  106.3960 C   0  0  0  0  0  0  0  0  0  0  0  0
  111.5960  135.1210  105.4040 C   0  0  0  0  0  0  0  0  0  0  0  0
  110.4500  137.9610  107.6240 C   0  0  0  0  0  0  0  0  0  0  0  0
  110.3060  139.3360  107.4650 C   0  0  0  0  0  0  0  0  0  0  0  0
  110.3550  139.8580  108.7280 N   0  0  0  0  0  0  0  0  0  0  0  0
  110.2660  141.1490  109.1350 C   0  0  0  0  0  0  0  0  0  0  0  0
  110.3430  141.4980  110.4910 C   0  0  0  0  0  0  0  0  0  0  0  0
  110.5240  140.4990  111.4190 C   0  0  0  0  0  0  0  0  0  0  0  0
  110.6210  139.1860  111.0070 C   0  0  0  0  0  0  0  0  0  0  0  0
  110.5310  138.8730  109.6150 C   0  0  0  0  0  0  0  0  0  0  0  0
  110.5910  137.7190  108.9640 N   0  0  0  0  0  0  0  0  0  0  0  0
  110.2260  142.9700  110.9180 C   0  0  0  0  0  0  0  0  0  0  0  0
  110.1050  140.1770  106.2270 C   0  0  0  0  0  0  0  0  0  0  0  0
  110.5260  139.6290  104.8700 C   0  0  0  0  0  0  0  0  0  0  0  0
  111.4240  138.8010  104.7720 O   0  0  0  0  0  0  0  0  0  0  0  0
  109.9160  140.0570  103.7520 N   0  0  0  0  0  0  0  0  0  0  0  0
  108.8530  141.0470  103.7930 C   0  0  0  0  0  0  0  0  0  0  0  0
  110.3020  139.5360  102.4570 C   0  0  0  0  0  0  0  0  0  0  0  0
  1  2  1  0  0  0  0
  2  3  1  0  0  0  0
  3  4  2  0  0  0  0
  4  5  1  0  0  0  0
  5  6  2  0  0  0  0
  2  7  2  0  0  0  0
  6  7  1  0  0  0  0
  5  8  1  0  0  0  0
  8  9  2  0  0  0  0
  9 10  1  0  0  0  0
 10 11  1  0  0  0  0
 11 12  2  0  0  0  0
 12 13  1  0  0  0  0
 13 14  2  0  0  0  0
 10 15  1  0  0  0  0
 14 15  1  0  0  0  0
  8 16  1  0  0  0  0
 15 16  2  0  0  0  0
 12 17  1  0  0  0  0
  9 18  1  0  0  0  0
 18 19  1  0  0  0  0
 19 20  2  0  0  0  0
 19 21  1  0  0  0  0
 21 22  1  0  0  0  0
 21 23  1  0  0  0  0
M  END
$$$$
