8DD2
  PyMOL3.1          3D                             0

 23 25  0  0  0  0  0  0  0  0999 V2000
  154.2710  108.6370  117.4740 C   0  0  0  0  0  0  0  0  0  0  0  0
  153.8970  108.6970  115.9850 C   0  0  0  0  0  0  0  0  0  0  0  0
  153.1690  107.6620  115.4140 C   0  0  0  0  0  0  0  0  0  0  0  0
  152.8320  107.7220  114.0580 C   0  0  0  0  0  0  0  0  0  0  0  0
  153.2160  108.8160  113.2990 C   0  0  0  0  0  0  0  0  0  0  0  0
  153.9510  109.8470  113.8770 C   0  0  0  0  0  0  0  0  0  0  0  0
  154.2900  109.7880  115.2300 C   0  0  0  0  0  0  0  0  0  0  0  0
  152.8540  108.8740  111.8600 C   0  0  0  0  0  0  0  0  0  0  0  0
  152.2540  109.9220  111.1890 C   0  0  0  0  0  0  0  0  0  0  0  0
  152.1190  109.5200  109.8970 N   0  0  0  0  0  0  0  0  0  0  0  0
  151.5930  110.1710  108.8330 C   0  0  0  0  0  0  0  0  0  0  0  0
  151.5550  109.5710  107.5690 C   0  0  0  0  0  0  0  0  0  0  0  0
  152.0600  108.3040  107.4200 C   0  0  0  0  0  0  0  0  0  0  0  0
  152.5940  107.6440  108.5040 C   0  0  0  0  0  0  0  0  0  0  0  0
  152.6160  108.2870  109.7760 C   0  0  0  0  0  0  0  0  0  0  0  0
  153.0650  107.8790  110.9530 N   0  0  0  0  0  0  0  0  0  0  0  0
  150.9560  110.3250  106.3780 C   0  0  0  0  0  0  0  0  0  0  0  0
  151.8060  111.2390  111.7540 C   0  0  0  0  0  0  0  0  0  0  0  0
  152.5390  112.4450  111.2010 C   0  0  0  0  0  0  0  0  0  0  0  0
  153.7620  112.4880  111.2310 O   0  0  0  0  0  0  0  0  0  0  0  0
  151.8560  113.4670  110.6800 N   0  0  0  0  0  0  0  0  0  0  0  0
  152.5790  114.6150  110.1530 C   0  0  0  0  0  0  0  0  0  0  0  0
  150.4040  113.4360  110.6360 C   0  0  0  0  0  0  0  0  0  0  0  0
  1  2  1  0  0  0  0
  2  3  1  0  0  0  0
  3  4  2  0  0  0  0
  4  5  1  0  0  0  0
  5  6  2  0  0  0  0
  2  7  2  0  0  0  0
  6  7  1  0  0  0  0
  5  8  1  0  0  0  0
  8  9  2  0  0  0  0
  9 10  1  0  0  0  0
 10 11  1  0  0  0  0
 11 12  2  0  0  0  0
 12 13  1  0  0  0  0
 13 14  2  0  0  0  0
 10 15  1  0  0  0  0
 14 15  1  0  0  0  0
  8 16  1  0  0  0  0
 15 16  2  0  0  0  0
 12 17  1  0  0  0  0
  9 18  1  0  0  0  0
 18 19  1  0  0  0  0
 19 20  2  0  0  0  0
 19 21  1  0  0  0  0
 21 22  1  0  0  0  0
 21 23  1  0  0  0  0
M  END
$$$$
