7T4W
  PyMOL3.1          3D                             0

 34 38  0  0  0  0  0  0  0  0999 V2000
   35.3040    7.8400    6.6270 N   0  0  0  0  0  0  0  0  0  0  0  0
   37.1560    9.7340    2.4440 C   0  0  0  0  0  0  0  0  0  0  0  0
   37.2290   10.9600    3.1610 O   0  0  0  0  0  0  0  0  0  0  0  0
   37.1980    5.3020   -0.7960 Cl  0  0  0  0  0  0  0  0  0  0  0  0
   32.0880    6.5810    0.2330 Cl  0  0  0  0  0  0  0  0  0  0  0  0
   35.8550    9.0100    2.7070 C   0  0  0  0  0  0  0  0  0  0  0  0
   34.1750   10.3980    8.1920 N   0  0  0  0  0  0  0  0  0  0  0  0
   36.0420    8.4770    4.0430 O   0  0  0  0  0  0  0  0  0  0  0  0
   35.8920    7.0670    4.3560 C   0  0  0  0  0  0  0  0  0  0  0  0
   35.1030    9.2060    9.8290 N   0  0  0  0  0  0  0  0  0  0  0  0
   37.2330    6.5620    4.8520 C   0  0  0  0  0  0  0  0  0  0  0  0
   37.6830    7.3400    6.0880 C   0  0  0  0  0  0  0  0  0  0  0  0
   36.6170    7.3330    7.1610 C   0  0  0  0  0  0  0  0  0  0  0  0
   34.3010    7.9840    7.7350 C   0  0  0  0  0  0  0  0  0  0  0  0
   34.5130    9.1930    8.6140 C   0  0  0  0  0  0  0  0  0  0  0  0
   34.6000   11.2680    9.1990 C   0  0  0  0  0  0  0  0  0  0  0  0
   34.5410   12.6570    9.3040 C   0  0  0  0  0  0  0  0  0  0  0  0
   35.0350   13.2680   10.4520 C   0  0  0  0  0  0  0  0  0  0  0  0
   35.5540   12.5060   11.5010 C   0  0  0  0  0  0  0  0  0  0  0  0
   35.6300   11.1230   11.4030 C   0  0  0  0  0  0  0  0  0  0  0  0
   35.1610   10.5250   10.2370 C   0  0  0  0  0  0  0  0  0  0  0  0
   34.8380    6.9830    5.4640 C   0  0  0  0  0  0  0  0  0  0  0  0
   33.4470    7.2600    4.9260 C   0  0  0  0  0  0  0  0  0  0  0  0
   33.0180    8.5550    4.6640 C   0  0  0  0  0  0  0  0  0  0  0  0
   31.7800    8.7900    4.0840 C   0  0  0  0  0  0  0  0  0  0  0  0
   30.9480    7.7330    3.7720 C   0  0  0  0  0  0  0  0  0  0  0  0
   31.3540    6.4430    4.0460 C   0  0  0  0  0  0  0  0  0  0  0  0
   32.5980    6.2070    4.6160 C   0  0  0  0  0  0  0  0  0  0  0  0
   35.5400    7.9650    1.6670 C   0  0  0  0  0  0  0  0  0  0  0  0
   36.4700    7.1980    0.9720 C   0  0  0  0  0  0  0  0  0  0  0  0
   36.0300    6.2730    0.0450 C   0  0  0  0  0  0  0  0  0  0  0  0
   34.6940    6.0840   -0.2250 C   0  0  0  0  0  0  0  0  0  0  0  0
   33.7890    6.8410    0.4850 C   0  0  0  0  0  0  0  0  0  0  0  0
   34.1870    7.7780    1.4140 C   0  0  0  0  0  0  0  0  0  0  0  0
  1 13  1  0  0  0  0
  1 14  1  0  0  0  0
  1 22  1  0  0  0  0
  2  3  1  0  0  0  0
  2  6  1  0  0  0  0
  5 33  1  0  0  0  0
  6  8  1  0  0  0  0
  8  9  1  0  0  0  0
  9 11  1  0  0  0  0
  9 22  1  0  0  0  0
 10 21  4  0  0  0  0
 11 12  1  0  0  0  0
 12 13  1  0  0  0  0
 14 15  1  0  0  0  0
  7 15  4  0  0  0  0
 10 15  4  0  0  0  0
  7 16  4  0  0  0  0
 16 17  4  0  0  0  0
 17 18  4  0  0  0  0
 18 19  4  0  0  0  0
 19 20  4  0  0  0  0
 16 21  4  0  0  0  0
 20 21  4  0  0  0  0
 22 23  1  0  0  0  0
 23 24  4  0  0  0  0
 23 28  4  0  0  0  0
 24 25  4  0  0  0  0
 25 26  4  0  0  0  0
 26 27  4  0  0  0  0
 27 28  4  0  0  0  0
  6 29  1  0  0  0  0
 29 30  4  0  0  0  0
  4 31  1  0  0  0  0
 30 31  4  0  0  0  0
 31 32  4  0  0  0  0
 32 33  4  0  0  0  0
 33 34  4  0  0  0  0
 29 34  4  0  0  0  0
M  END
$$$$
