7T4W
  PyMOL3.1          3D                             0

 34 38  0  0  0  0  0  0  0  0999 V2000
   12.9630   13.4870  -19.2660 N   0  0  0  0  0  0  0  0  0  0  0  0
   11.5550   16.6670  -22.7750 C   0  0  0  0  0  0  0  0  0  0  0  0
   10.4110   16.8810  -21.9610 O   0  0  0  0  0  0  0  0  0  0  0  0
   15.6580   16.4490  -26.3670 Cl  0  0  0  0  0  0  0  0  0  0  0  0
   13.2940   11.6270  -26.2880 Cl  0  0  0  0  0  0  0  0  0  0  0  0
   11.9130   15.1960  -22.8690 C   0  0  0  0  0  0  0  0  0  0  0  0
   10.2370   12.6680  -17.7920 N   0  0  0  0  0  0  0  0  0  0  0  0
   12.4950   14.9300  -21.5680 O   0  0  0  0  0  0  0  0  0  0  0  0
   13.8210   14.3570  -21.4120 C   0  0  0  0  0  0  0  0  0  0  0  0
   11.6040   13.0100  -16.0650 N   0  0  0  0  0  0  0  0  0  0  0  0
   14.6870   15.3640  -20.6850 C   0  0  0  0  0  0  0  0  0  0  0  0
   14.0910   15.7080  -19.3220 C   0  0  0  0  0  0  0  0  0  0  0  0
   13.8210   14.4620  -18.5070 C   0  0  0  0  0  0  0  0  0  0  0  0
   12.5680   12.3400  -18.3830 C   0  0  0  0  0  0  0  0  0  0  0  0
   11.4880   12.6720  -17.3730 C   0  0  0  0  0  0  0  0  0  0  0  0
    9.4820   13.0330  -16.6770 C   0  0  0  0  0  0  0  0  0  0  0  0
    8.1060   13.2060  -16.5310 C   0  0  0  0  0  0  0  0  0  0  0  0
    7.6050   13.6000  -15.2970 C   0  0  0  0  0  0  0  0  0  0  0  0
    8.4610   13.8520  -14.2300 C   0  0  0  0  0  0  0  0  0  0  0  0
    9.8360   13.6980  -14.3680 C   0  0  0  0  0  0  0  0  0  0  0  0
   10.3270   13.2620  -15.5920 C   0  0  0  0  0  0  0  0  0  0  0  0
   13.6370   13.0930  -20.5660 C   0  0  0  0  0  0  0  0  0  0  0  0
   13.0210   11.9860  -21.3770 C   0  0  0  0  0  0  0  0  0  0  0  0
   11.6540   11.9610  -21.6280 C   0  0  0  0  0  0  0  0  0  0  0  0
   11.1050   10.9830  -22.4440 C   0  0  0  0  0  0  0  0  0  0  0  0
   11.9100   10.0110  -23.0040 C   0  0  0  0  0  0  0  0  0  0  0  0
   13.2670   10.0180  -22.7530 C   0  0  0  0  0  0  0  0  0  0  0  0
   13.8210   11.0020  -21.9490 C   0  0  0  0  0  0  0  0  0  0  0  0
   12.8190   14.8790  -24.0320 C   0  0  0  0  0  0  0  0  0  0  0  0
   13.7710   15.7390  -24.5700 C   0  0  0  0  0  0  0  0  0  0  0  0
   14.5230   15.3330  -25.6560 C   0  0  0  0  0  0  0  0  0  0  0  0
   14.3850   14.0780  -26.2120 C   0  0  0  0  0  0  0  0  0  0  0  0
   13.4500   13.2360  -25.6560 C   0  0  0  0  0  0  0  0  0  0  0  0
   12.6580   13.6170  -24.5930 C   0  0  0  0  0  0  0  0  0  0  0  0
  1 13  1  0  0  0  0
  1 14  1  0  0  0  0
  1 22  1  0  0  0  0
  2  3  1  0  0  0  0
  2  6  1  0  0  0  0
  5 33  1  0  0  0  0
  6  8  1  0  0  0  0
  8  9  1  0  0  0  0
  9 11  1  0  0  0  0
  9 22  1  0  0  0  0
 10 21  4  0  0  0  0
 11 12  1  0  0  0  0
 12 13  1  0  0  0  0
 14 15  1  0  0  0  0
  7 15  4  0  0  0  0
 10 15  4  0  0  0  0
  7 16  4  0  0  0  0
 16 17  4  0  0  0  0
 17 18  4  0  0  0  0
 18 19  4  0  0  0  0
 19 20  4  0  0  0  0
 16 21  4  0  0  0  0
 20 21  4  0  0  0  0
 22 23  1  0  0  0  0
 23 24  4  0  0  0  0
 23 28  4  0  0  0  0
 24 25  4  0  0  0  0
 25 26  4  0  0  0  0
 26 27  4  0  0  0  0
 27 28  4  0  0  0  0
  6 29  1  0  0  0  0
 29 30  4  0  0  0  0
  4 31  1  0  0  0  0
 30 31  4  0  0  0  0
 31 32  4  0  0  0  0
 32 33  4  0  0  0  0
 33 34  4  0  0  0  0
 29 34  4  0  0  0  0
M  END
$$$$
