7QPN
  PyMOL3.1          3D                             0

 81 90  0  0  0  0  0  0  0  0999 V2000
   15.2840    1.5630   48.4640 N   0  0  0  0  0  0  0  0  0  0  0  0
   16.3220   -0.7100   45.9520 C   0  0  0  0  0  0  0  0  0  0  0  0
   17.2480    0.4070   46.4500 C   0  0  0  0  0  0  0  0  0  0  0  0
   13.9430    0.4580   49.9850 N   0  0  0  0  0  0  0  0  0  0  0  0
   18.6820    0.0860   46.0620 C   0  0  0  0  0  0  0  0  0  0  0  0
   14.0080   -2.7190   48.1210 N   0  0  0  0  0  0  0  0  0  0  0  0
   16.8400    1.7720   45.9240 C   0  0  0  0  0  0  0  0  0  0  0  0
   14.8510    2.7030   52.0480 N   0  0  0  0  0  0  0  0  0  0  0  0
   16.3920    2.8100   46.7510 C   0  0  0  0  0  0  0  0  0  0  0  0
   16.3860    3.6330   48.9720 N   0  0  0  0  0  0  0  0  0  0  0  0
   16.1450    4.0570   46.1800 C   0  0  0  0  0  0  0  0  0  0  0  0
   16.2940    4.2630   44.8240 C   0  0  0  0  0  0  0  0  0  0  0  0
   16.6810    3.2370   44.0160 C   0  0  0  0  0  0  0  0  0  0  0  0
   16.9580    1.9990   44.5570 C   0  0  0  0  0  0  0  0  0  0  0  0
   16.0430    2.6330   48.1450 C   0  0  0  0  0  0  0  0  0  0  0  0
   14.7700    1.4870   49.7160 C   0  0  0  0  0  0  0  0  0  0  0  0
   13.5580   -0.5310   48.9900 C   0  0  0  0  0  0  0  0  0  0  0  0
   14.4160   -1.7570   48.9630 C   0  0  0  0  0  0  0  0  0  0  0  0
   15.5720   -1.8610   49.7030 C   0  0  0  0  0  0  0  0  0  0  0  0
   16.3490   -2.9990   49.5620 C   0  0  0  0  0  0  0  0  0  0  0  0
   15.9510   -3.9940   48.7070 C   0  0  0  0  0  0  0  0  0  0  0  0
   14.7730   -3.8140   48.0100 C   0  0  0  0  0  0  0  0  0  0  0  0
   15.0870    2.5040   50.6990 C   0  0  0  0  0  0  0  0  0  0  0  0
   13.9690    1.9520   52.9330 C   0  0  0  0  0  0  0  0  0  0  0  0
   15.5500    3.8170   52.4450 C   0  0  0  0  0  0  0  0  0  0  0  0
   16.2110    4.3640   51.4000 C   0  0  0  0  0  0  0  0  0  0  0  0
   15.9210    3.5370   50.2360 C   0  0  0  0  0  0  0  0  0  0  0  0
  -19.1200   39.4040   17.1330 N   0  0  0  0  0  0  0  0  0  0  0  0
   -8.0930   37.6870    5.2120 N   0  0  0  0  0  0  0  0  0  0  0  0
  -20.2600   37.4220   14.2790 C   0  0  0  0  0  0  0  0  0  0  0  0
   -6.4050   40.2050    8.5000 C   0  0  0  0  0  0  0  0  0  0  0  0
  -21.1410   37.7220   15.4740 C   0  0  0  0  0  0  0  0  0  0  0  0
   -7.6610   39.6850    7.7950 C   0  0  0  0  0  0  0  0  0  0  0  0
  -17.8110   41.0600   16.2710 N   0  0  0  0  0  0  0  0  0  0  0  0
   -8.5300   35.4550    5.2180 N   0  0  0  0  0  0  0  0  0  0  0  0
  -22.5820   37.4900   15.1170 C   0  0  0  0  0  0  0  0  0  0  0  0
   -8.8710   39.7060    8.7140 C   0  0  0  0  0  0  0  0  0  0  0  0
  -17.7820   39.7050   12.8260 N   0  0  0  0  0  0  0  0  0  0  0  0
  -11.2320   34.4710    6.5930 N   0  0  0  0  0  0  0  0  0  0  0  0
  -20.7560   36.9310   16.7110 C   0  0  0  0  0  0  0  0  0  0  0  0
   -7.9920   40.5120    6.5720 C   0  0  0  0  0  0  0  0  0  0  0  0
  -18.8900   42.8290   18.7130 N   0  0  0  0  0  0  0  0  0  0  0  0
   -5.6290   35.0450    4.2260 N   0  0  0  0  0  0  0  0  0  0  0  0
  -20.3520   37.5360   17.9100 C   0  0  0  0  0  0  0  0  0  0  0  0
   -7.6380   40.0610    5.2910 C   0  0  0  0  0  0  0  0  0  0  0  0
  -20.4990   39.6680   19.0460 N   0  0  0  0  0  0  0  0  0  0  0  0
   -5.9250   38.5360    4.6930 N   0  0  0  0  0  0  0  0  0  0  0  0
  -20.1290   36.7210   19.0150 C   0  0  0  0  0  0  0  0  0  0  0  0
   -7.8370   40.9130    4.2060 C   0  0  0  0  0  0  0  0  0  0  0  0
  -20.2370   35.3480   18.9250 C   0  0  0  0  0  0  0  0  0  0  0  0
   -8.4230   42.1600    4.3900 C   0  0  0  0  0  0  0  0  0  0  0  0
  -20.5800   34.7670   17.7500 C   0  0  0  0  0  0  0  0  0  0  0  0
   -8.8620   42.5530    5.6410 C   0  0  0  0  0  0  0  0  0  0  0  0
  -20.8560   35.5480   16.6480 C   0  0  0  0  0  0  0  0  0  0  0  0
   -8.6440   41.7400    6.7350 C   0  0  0  0  0  0  0  0  0  0  0  0
  -19.9960   38.9590   18.0260 C   0  0  0  0  0  0  0  0  0  0  0  0
   -7.1990   38.6850    5.0390 C   0  0  0  0  0  0  0  0  0  0  0  0
  -18.6740   40.6670   17.2220 C   0  0  0  0  0  0  0  0  0  0  0  0
   -7.6690   36.4310    4.9840 C   0  0  0  0  0  0  0  0  0  0  0  0
  -17.3900   40.1960   15.1810 C   0  0  0  0  0  0  0  0  0  0  0  0
   -9.9270   35.5750    4.9170 C   0  0  0  0  0  0  0  0  0  0  0  0
  -18.2160   40.3740   13.9080 C   0  0  0  0  0  0  0  0  0  0  0  0
  -10.5880   35.5880    6.2390 C   0  0  0  0  0  0  0  0  0  0  0  0
  -19.3760   41.1040   13.8980 C   0  0  0  0  0  0  0  0  0  0  0  0
  -10.5840   36.7280    7.0090 C   0  0  0  0  0  0  0  0  0  0  0  0
  -20.1470   41.1100   12.7480 C   0  0  0  0  0  0  0  0  0  0  0  0
  -11.2900   36.7200    8.1890 C   0  0  0  0  0  0  0  0  0  0  0  0
  -19.7320   40.4240   11.6440 C   0  0  0  0  0  0  0  0  0  0  0  0
  -11.9450   35.5820    8.5790 C   0  0  0  0  0  0  0  0  0  0  0  0
  -18.5400   39.7520   11.7190 C   0  0  0  0  0  0  0  0  0  0  0  0
  -11.8940   34.4890    7.7510 C   0  0  0  0  0  0  0  0  0  0  0  0
  -19.1140   41.5300   18.2840 C   0  0  0  0  0  0  0  0  0  0  0  0
   -6.3510   36.1630    4.5950 C   0  0  0  0  0  0  0  0  0  0  0  0
  -17.9790   43.8240   18.1660 C   0  0  0  0  0  0  0  0  0  0  0  0
   -6.1020   33.6800    4.0490 C   0  0  0  0  0  0  0  0  0  0  0  0
  -19.6750   43.0630   19.8190 C   0  0  0  0  0  0  0  0  0  0  0  0
   -4.3430   35.4450    3.9550 C   0  0  0  0  0  0  0  0  0  0  0  0
  -20.3950   41.9660   20.1410 C   0  0  0  0  0  0  0  0  0  0  0  0
   -4.2250   36.7830    4.1290 C   0  0  0  0  0  0  0  0  0  0  0  0
  -20.0460   40.9350   19.1570 C   0  0  0  0  0  0  0  0  0  0  0  0
   -5.5160   37.2660    4.5100 C   0  0  0  0  0  0  0  0  0  0  0  0
  2  3  1  0  0  0  0
  3  5  1  0  0  0  0
  3  7  1  0  0  0  0
  7  9  2  0  0  0  0
  9 11  1  0  0  0  0
 11 12  2  0  0  0  0
 12 13  1  0  0  0  0
  7 14  1  0  0  0  0
 13 14  2  0  0  0  0
  1 15  2  0  0  0  0
  9 15  1  0  0  0  0
 10 15  1  0  0  0  0
  1 16  1  0  0  0  0
  4 16  1  0  0  0  0
  4 17  1  0  0  0  0
  6 18  1  0  0  0  0
 17 18  1  0  0  0  0
 18 19  2  0  0  0  0
 19 20  1  0  0  0  0
 20 21  2  0  0  0  0
  6 22  2  0  0  0  0
 21 22  1  0  0  0  0
  8 23  1  0  0  0  0
 16 23  2  0  0  0  0
  8 24  1  0  0  0  0
  8 25  1  0  0  0  0
 25 26  2  0  0  0  0
 10 27  2  0  0  0  0
 23 27  1  0  0  0  0
 26 27  1  0  0  0  0
 30 32  1  0  0  0  0
 31 33  1  0  0  0  0
 32 36  1  0  0  0  0
 33 37  1  0  0  0  0
 32 40  1  0  0  0  0
 33 41  1  0  0  0  0
 40 44  2  0  0  0  0
 41 45  2  0  0  0  0
 44 48  1  0  0  0  0
 45 49  1  0  0  0  0
 48 50  2  0  0  0  0
 49 51  2  0  0  0  0
 50 52  1  0  0  0  0
 51 53  1  0  0  0  0
 40 54  1  0  0  0  0
 52 54  2  0  0  0  0
 41 55  1  0  0  0  0
 53 55  2  0  0  0  0
 28 56  2  0  0  0  0
 44 56  1  0  0  0  0
 46 56  1  0  0  0  0
 29 57  2  0  0  0  0
 45 57  1  0  0  0  0
 47 57  1  0  0  0  0
 28 58  1  0  0  0  0
 34 58  1  0  0  0  0
 29 59  1  0  0  0  0
 35 59  1  0  0  0  0
 34 60  1  0  0  0  0
 35 61  1  0  0  0  0
 38 62  1  0  0  0  0
 60 62  1  0  0  0  0
 39 63  1  0  0  0  0
 61 63  1  0  0  0  0
 62 64  2  0  0  0  0
 63 65  2  0  0  0  0
 64 66  1  0  0  0  0
 65 67  1  0  0  0  0
 66 68  2  0  0  0  0
 67 69  2  0  0  0  0
 38 70  2  0  0  0  0
 68 70  1  0  0  0  0
 39 71  2  0  0  0  0
 69 71  1  0  0  0  0
 42 72  1  0  0  0  0
 58 72  2  0  0  0  0
 43 73  1  0  0  0  0
 59 73  2  0  0  0  0
 42 74  1  0  0  0  0
 43 75  1  0  0  0  0
 42 76  1  0  0  0  0
 43 77  1  0  0  0  0
 76 78  2  0  0  0  0
 77 79  2  0  0  0  0
 46 80  2  0  0  0  0
 72 80  1  0  0  0  0
 78 80  1  0  0  0  0
 47 81  2  0  0  0  0
 73 81  1  0  0  0  0
 79 81  1  0  0  0  0
M  END
$$$$
