6YM4
  PyMOL3.1          3D                             0

 33 36  0  0  0  0  0  0  0  0999 V2000
   13.6730   -3.6300   -6.2420 Cl  0  0  0  0  0  0  0  0  0  0  0  0
    8.7920    0.3610  -10.3280 C   0  0  0  0  0  0  0  0  0  0  0  0
    8.5620    1.2490   -9.2370 C   0  0  0  0  0  0  0  0  0  0  0  0
    9.0260    0.9310   -7.9210 C   0  0  0  0  0  0  0  0  0  0  0  0
    9.6540   -0.2760   -7.6870 C   0  0  0  0  0  0  0  0  0  0  0  0
    9.8570   -1.1510   -8.7540 C   0  0  0  0  0  0  0  0  0  0  0  0
    9.4110   -0.8270  -10.0580 C   0  0  0  0  0  0  0  0  0  0  0  0
   10.5410   -2.4320   -8.4790 C   0  0  0  0  0  0  0  0  0  0  0  0
   11.6160   -2.4990   -7.6220 C   0  0  0  0  0  0  0  0  0  0  0  0
   12.2630   -3.6540   -7.3490 C   0  0  0  0  0  0  0  0  0  0  0  0
   11.8650   -4.7840   -7.9800 C   0  0  0  0  0  0  0  0  0  0  0  0
   10.7740   -4.7340   -8.8210 C   0  0  0  0  0  0  0  0  0  0  0  0
   10.1080   -3.5650   -9.0970 C   0  0  0  0  0  0  0  0  0  0  0  0
    7.9030    2.5470   -9.5220 C   0  0  0  0  0  0  0  0  0  0  0  0
    8.5110    3.6740   -9.1570 N   0  0  0  0  0  0  0  0  0  0  0  0
    7.9150    4.8750   -9.3640 C   0  0  0  0  0  0  0  0  0  0  0  0
    8.5220    6.0720   -8.9570 C   0  0  0  0  0  0  0  0  0  0  0  0
    7.8710    7.2180   -9.0560 N   0  0  0  0  0  0  0  0  0  0  0  0
    6.6820    7.2970   -9.6560 C   0  0  0  0  0  0  0  0  0  0  0  0
    6.0450    6.2400  -10.2050 C   0  0  0  0  0  0  0  0  0  0  0  0
    6.6490    4.9750  -10.0230 C   0  0  0  0  0  0  0  0  0  0  0  0
    6.0150    3.7840  -10.4910 C   0  0  0  0  0  0  0  0  0  0  0  0
    6.6510    2.5290  -10.1980 C   0  0  0  0  0  0  0  0  0  0  0  0
    5.9810    1.2840  -10.4530 C   0  0  0  0  0  0  0  0  0  0  0  0
    5.3910    0.3530  -10.7000 N   0  0  0  0  0  0  0  0  0  0  0  0
    4.7970    3.9410  -11.1660 N   0  0  0  0  0  0  0  0  0  0  0  0
    4.4170    3.0620  -12.3320 C   0  0  0  0  0  0  0  0  0  0  0  0
    5.6020    2.8180  -13.2730 C   0  0  0  0  0  0  0  0  0  0  0  0
    5.4460    3.0450  -14.7280 C   0  0  0  0  0  0  0  0  0  0  0  0
    3.3430    3.6980  -13.1270 C   0  0  0  0  0  0  0  0  0  0  0  0
    3.2120    4.8620  -13.1130 O   0  0  0  0  0  0  0  0  0  0  0  0
    2.4860    2.9770  -13.8250 N   0  0  0  0  0  0  0  0  0  0  0  0
   12.1060   -1.4060   -6.9960 F   0  0  0  0  0  0  0  0  0  0  0  0
  2  3  1  0  0  0  0
  3  4  2  0  0  0  0
  4  5  1  0  0  0  0
  5  6  2  0  0  0  0
  2  7  2  0  0  0  0
  6  7  1  0  0  0  0
  6  8  1  0  0  0  0
  8  9  2  0  0  0  0
  1 10  1  0  0  0  0
  9 10  1  0  0  0  0
 10 11  2  0  0  0  0
 11 12  1  0  0  0  0
  8 13  1  0  0  0  0
 12 13  2  0  0  0  0
  3 14  1  0  0  0  0
 14 15  2  0  0  0  0
 15 16  1  0  0  0  0
 16 17  2  0  0  0  0
 17 18  1  0  0  0  0
 18 19  2  0  0  0  0
 19 20  1  0  0  0  0
 16 21  1  0  0  0  0
 20 21  2  0  0  0  0
 21 22  1  0  0  0  0
 14 23  1  0  0  0  0
 22 23  2  0  0  0  0
 23 24  1  0  0  0  0
 24 25  3  0  0  0  0
 22 26  1  0  0  0  0
 26 27  1  0  0  0  0
 27 28  1  0  0  0  0
 28 29  1  0  0  0  0
 27 30  1  0  0  0  0
 30 31  2  0  0  0  0
 30 32  1  0  0  0  0
  9 33  1  0  0  0  0
M  END
$$$$
