8R4X
  PyMOL3.1          3D                             0

112124  0  0  0  0  0  0  0  0999 V2000
  -58.9350    7.5350    7.5440 Cl  0  0  0  0  0  0  0  0  0  0  0  0
  -47.6830    4.1270   -1.4290 Cl  0  0  0  0  0  0  0  0  0  0  0  0
  -48.2700   10.9910    5.0000 C   0  0  0  0  0  0  0  0  0  0  0  0
  -48.4010    9.4640    5.3170 C   0  0  0  0  0  0  0  0  0  0  0  0
  -47.9000    8.7610    4.2480 O   0  0  0  0  0  0  0  0  0  0  0  0
  -47.9960    7.3850    4.4840 C   0  0  0  0  0  0  0  0  0  0  0  0
  -49.5300    7.0490    4.5530 C   0  0  0  0  0  0  0  0  0  0  0  0
  -50.1840    7.7070    5.6390 N   0  0  0  0  0  0  0  0  0  0  0  0
  -49.9120    9.1130    5.5180 C   0  0  0  0  0  0  0  0  0  0  0  0
  -51.5790    7.4120    5.6760 C   0  0  0  0  0  0  0  0  0  0  0  0
  -51.8620    5.9520    5.9030 C   0  0  0  0  0  0  0  0  0  0  0  0
  -53.3830    5.6550    6.0780 C   0  0  0  0  0  0  0  0  0  0  0  0
  -53.9700    6.4000    7.1950 N   0  0  0  0  0  0  0  0  0  0  0  0
  -53.7130    7.8370    7.0150 C   0  0  0  0  0  0  0  0  0  0  0  0
  -52.1910    8.0950    6.8830 C   0  0  0  0  0  0  0  0  0  0  0  0
  -55.3310    6.0330    7.4100 C   0  0  0  0  0  0  0  0  0  0  0  0
  -55.5230    4.7470    7.7340 N   0  0  0  0  0  0  0  0  0  0  0  0
  -56.7780    4.2260    7.9900 C   0  0  0  0  0  0  0  0  0  0  0  0
  -57.8490    5.1240    7.9560 C   0  0  0  0  0  0  0  0  0  0  0  0
  -57.5710    6.4670    7.6270 C   0  0  0  0  0  0  0  0  0  0  0  0
  -56.3470    7.0160    7.3250 C   0  0  0  0  0  0  0  0  0  0  0  0
  -50.1920    7.2780    3.1050 C   0  0  0  0  0  0  0  0  0  0  0  0
  -49.5820    6.4460    1.9330 C   0  0  0  0  0  0  0  0  0  0  0  0
  -49.0230    7.0990    0.8370 C   0  0  0  0  0  0  0  0  0  0  0  0
  -48.4850    6.3800   -0.2150 C   0  0  0  0  0  0  0  0  0  0  0  0
  -48.4700    4.9890   -0.1220 C   0  0  0  0  0  0  0  0  0  0  0  0
  -48.9750    4.3240    0.9710 C   0  0  0  0  0  0  0  0  0  0  0  0
  -49.5520    5.0730    2.0000 C   0  0  0  0  0  0  0  0  0  0  0  0
  -21.2170  -20.7310   37.0940 Cl  0  0  0  0  0  0  0  0  0  0  0  0
  -32.7270  -29.6700   34.5980 Cl  0  0  0  0  0  0  0  0  0  0  0  0
  -31.9080  -22.6260   40.8280 C   0  0  0  0  0  0  0  0  0  0  0  0
  -31.7620  -22.5590   39.2820 C   0  0  0  0  0  0  0  0  0  0  0  0
  -32.3200  -23.6710   38.7460 O   0  0  0  0  0  0  0  0  0  0  0  0
  -32.2140  -23.6690   37.3550 C   0  0  0  0  0  0  0  0  0  0  0  0
  -30.6990  -23.5490   36.9510 C   0  0  0  0  0  0  0  0  0  0  0  0
  -30.0210  -22.4430   37.5380 N   0  0  0  0  0  0  0  0  0  0  0  0
  -30.2070  -22.4830   38.9350 C   0  0  0  0  0  0  0  0  0  0  0  0
  -28.6070  -22.4200   37.2290 C   0  0  0  0  0  0  0  0  0  0  0  0
  -28.3870  -22.3610   35.7470 C   0  0  0  0  0  0  0  0  0  0  0  0
  -26.8690  -22.3010   35.3950 C   0  0  0  0  0  0  0  0  0  0  0  0
  -26.2680  -21.1590   36.0560 N   0  0  0  0  0  0  0  0  0  0  0  0
  -26.4700  -21.0950   37.5160 C   0  0  0  0  0  0  0  0  0  0  0  0
  -27.9980  -21.2080   37.8700 C   0  0  0  0  0  0  0  0  0  0  0  0
  -24.9060  -20.9690   35.6460 C   0  0  0  0  0  0  0  0  0  0  0  0
  -24.6970  -20.7690   34.3350 N   0  0  0  0  0  0  0  0  0  0  0  0
  -23.4120  -20.5710   33.8050 C   0  0  0  0  0  0  0  0  0  0  0  0
  -22.3460  -20.5250   34.6890 C   0  0  0  0  0  0  0  0  0  0  0  0
  -22.6150  -20.7090   36.0440 C   0  0  0  0  0  0  0  0  0  0  0  0
  -23.8320  -20.9940   36.5970 C   0  0  0  0  0  0  0  0  0  0  0  0
  -30.0280  -24.9530   37.3190 C   0  0  0  0  0  0  0  0  0  0  0  0
  -30.7180  -26.1650   36.6120 C   0  0  0  0  0  0  0  0  0  0  0  0
  -30.7060  -26.2730   35.2230 C   0  0  0  0  0  0  0  0  0  0  0  0
  -31.3200  -27.3490   34.5860 C   0  0  0  0  0  0  0  0  0  0  0  0
  -31.8730  -28.3050   35.3670 C   0  0  0  0  0  0  0  0  0  0  0  0
  -31.8920  -28.2040   36.7610 C   0  0  0  0  0  0  0  0  0  0  0  0
  -31.2670  -27.1190   37.4090 C   0  0  0  0  0  0  0  0  0  0  0  0
  -23.3970   24.3660   30.7110 Cl  0  0  0  0  0  0  0  0  0  0  0  0
  -34.8590   33.1200   32.8530 Cl  0  0  0  0  0  0  0  0  0  0  0  0
  -34.0200   25.9990   26.7400 C   0  0  0  0  0  0  0  0  0  0  0  0
  -33.9250   25.9030   28.2830 C   0  0  0  0  0  0  0  0  0  0  0  0
  -34.4710   27.0580   28.8190 O   0  0  0  0  0  0  0  0  0  0  0  0
  -34.4180   26.9610   30.2220 C   0  0  0  0  0  0  0  0  0  0  0  0
  -32.9000   26.9390   30.6070 C   0  0  0  0  0  0  0  0  0  0  0  0
  -32.2160   25.8310   30.0580 N   0  0  0  0  0  0  0  0  0  0  0  0
  -32.3900   25.7850   28.6620 C   0  0  0  0  0  0  0  0  0  0  0  0
  -30.8130   25.7900   30.3970 C   0  0  0  0  0  0  0  0  0  0  0  0
  -30.5900   25.8020   31.8840 C   0  0  0  0  0  0  0  0  0  0  0  0
  -29.0710   25.7780   32.2780 C   0  0  0  0  0  0  0  0  0  0  0  0
  -28.4660   24.6230   31.6590 N   0  0  0  0  0  0  0  0  0  0  0  0
  -28.6590   24.5060   30.1960 C   0  0  0  0  0  0  0  0  0  0  0  0
  -30.2010   24.5210   29.8620 C   0  0  0  0  0  0  0  0  0  0  0  0
  -27.1110   24.4550   32.1190 C   0  0  0  0  0  0  0  0  0  0  0  0
  -26.9410   24.2740   33.4440 N   0  0  0  0  0  0  0  0  0  0  0  0
  -25.6790   24.1280   34.0130 C   0  0  0  0  0  0  0  0  0  0  0  0
  -24.5890   24.1410   33.1090 C   0  0  0  0  0  0  0  0  0  0  0  0
  -24.8340   24.2790   31.7310 C   0  0  0  0  0  0  0  0  0  0  0  0
  -26.0760   24.5030   31.1370 C   0  0  0  0  0  0  0  0  0  0  0  0
  -32.2420   28.3580   30.1950 C   0  0  0  0  0  0  0  0  0  0  0  0
  -32.9360   29.5780   30.8920 C   0  0  0  0  0  0  0  0  0  0  0  0
  -32.9490   29.6620   32.2750 C   0  0  0  0  0  0  0  0  0  0  0  0
  -33.5110   30.7450   32.9310 C   0  0  0  0  0  0  0  0  0  0  0  0
  -34.0240   31.7400   32.1390 C   0  0  0  0  0  0  0  0  0  0  0  0
  -34.0220   31.6720   30.7610 C   0  0  0  0  0  0  0  0  0  0  0  0
  -33.4340   30.5850   30.1280 C   0  0  0  0  0  0  0  0  0  0  0  0
  -60.0440   -6.5480   58.5470 Cl  0  0  0  0  0  0  0  0  0  0  0  0
  -48.5390   -4.4800   67.5450 Cl  0  0  0  0  0  0  0  0  0  0  0  0
  -49.0850  -10.0060   59.8300 C   0  0  0  0  0  0  0  0  0  0  0  0
  -49.3650   -8.4930   60.0480 C   0  0  0  0  0  0  0  0  0  0  0  0
  -48.8510   -8.0390   61.2210 O   0  0  0  0  0  0  0  0  0  0  0  0
  -49.0080   -6.6500   61.2780 C   0  0  0  0  0  0  0  0  0  0  0  0
  -50.5580   -6.3050   61.2300 C   0  0  0  0  0  0  0  0  0  0  0  0
  -51.2300   -6.8560   60.1280 N   0  0  0  0  0  0  0  0  0  0  0  0
  -50.9060   -8.2220   59.9490 C   0  0  0  0  0  0  0  0  0  0  0  0
  -52.6290   -6.5750   60.1190 C   0  0  0  0  0  0  0  0  0  0  0  0
  -52.9300   -5.1050   60.1720 C   0  0  0  0  0  0  0  0  0  0  0  0
  -54.4660   -4.8030   60.1040 C   0  0  0  0  0  0  0  0  0  0  0  0
  -55.0720   -5.3880   58.9210 N   0  0  0  0  0  0  0  0  0  0  0  0
  -54.7670   -6.8370   58.7800 C   0  0  0  0  0  0  0  0  0  0  0  0
  -53.2160   -7.0260   58.8050 C   0  0  0  0  0  0  0  0  0  0  0  0
  -56.4470   -4.9950   58.7890 C   0  0  0  0  0  0  0  0  0  0  0  0
  -56.6740   -3.6970   58.7310 N   0  0  0  0  0  0  0  0  0  0  0  0
  -57.9300   -3.1560   58.6140 C   0  0  0  0  0  0  0  0  0  0  0  0
  -58.9550   -4.0720   58.5230 C   0  0  0  0  0  0  0  0  0  0  0  0
  -58.6870   -5.4380   58.6070 C   0  0  0  0  0  0  0  0  0  0  0  0
  -57.4500   -5.9780   58.7620 C   0  0  0  0  0  0  0  0  0  0  0  0
  -51.1930   -6.8260   62.5910 C   0  0  0  0  0  0  0  0  0  0  0  0
  -50.5360   -6.2690   63.8990 C   0  0  0  0  0  0  0  0  0  0  0  0
  -50.5800   -4.8990   64.1420 C   0  0  0  0  0  0  0  0  0  0  0  0
  -49.9360   -4.3940   65.2720 C   0  0  0  0  0  0  0  0  0  0  0  0
  -49.3080   -5.2310   66.1500 C   0  0  0  0  0  0  0  0  0  0  0  0
  -49.2470   -6.6190   65.9350 C   0  0  0  0  0  0  0  0  0  0  0  0
  -49.8710   -7.1140   64.7690 C   0  0  0  0  0  0  0  0  0  0  0  0
  3  4  1  0  0  0  0
  4  5  1  0  0  0  0
  5  6  1  0  0  0  0
  6  7  1  0  0  0  0
  7  8  1  0  0  0  0
  4  9  1  0  0  0  0
  8  9  1  0  0  0  0
  8 10  1  0  0  0  0
 10 11  1  0  0  0  0
 11 12  1  0  0  0  0
 12 13  1  0  0  0  0
 13 14  1  0  0  0  0
 10 15  1  0  0  0  0
 14 15  1  0  0  0  0
 13 16  1  0  0  0  0
 16 17  1  0  0  0  0
 17 18  2  0  0  0  0
 18 19  1  0  0  0  0
  1 20  1  0  0  0  0
 19 20  2  0  0  0  0
 16 21  2  0  0  0  0
 20 21  1  0  0  0  0
  7 22  1  0  0  0  0
 22 23  1  0  0  0  0
 23 24  1  0  0  0  0
 24 25  2  0  0  0  0
  2 26  1  0  0  0  0
 25 26  1  0  0  0  0
 26 27  2  0  0  0  0
 23 28  2  0  0  0  0
 27 28  1  0  0  0  0
 31 32  1  0  0  0  0
 32 33  1  0  0  0  0
 33 34  1  0  0  0  0
 34 35  1  0  0  0  0
 35 36  1  0  0  0  0
 32 37  1  0  0  0  0
 36 37  1  0  0  0  0
 36 38  1  0  0  0  0
 38 39  1  0  0  0  0
 39 40  1  0  0  0  0
 40 41  1  0  0  0  0
 41 42  1  0  0  0  0
 38 43  1  0  0  0  0
 42 43  1  0  0  0  0
 41 44  1  0  0  0  0
 44 45  1  0  0  0  0
 45 46  2  0  0  0  0
 46 47  1  0  0  0  0
 29 48  1  0  0  0  0
 47 48  2  0  0  0  0
 44 49  2  0  0  0  0
 48 49  1  0  0  0  0
 35 50  1  0  0  0  0
 50 51  1  0  0  0  0
 51 52  1  0  0  0  0
 52 53  2  0  0  0  0
 30 54  1  0  0  0  0
 53 54  1  0  0  0  0
 54 55  2  0  0  0  0
 51 56  2  0  0  0  0
 55 56  1  0  0  0  0
 59 60  1  0  0  0  0
 60 61  1  0  0  0  0
 61 62  1  0  0  0  0
 62 63  1  0  0  0  0
 63 64  1  0  0  0  0
 60 65  1  0  0  0  0
 64 65  1  0  0  0  0
 64 66  1  0  0  0  0
 66 67  1  0  0  0  0
 67 68  1  0  0  0  0
 68 69  1  0  0  0  0
 69 70  1  0  0  0  0
 66 71  1  0  0  0  0
 70 71  1  0  0  0  0
 69 72  1  0  0  0  0
 72 73  1  0  0  0  0
 73 74  2  0  0  0  0
 74 75  1  0  0  0  0
 57 76  1  0  0  0  0
 75 76  2  0  0  0  0
 72 77  2  0  0  0  0
 76 77  1  0  0  0  0
 63 78  1  0  0  0  0
 78 79  1  0  0  0  0
 79 80  1  0  0  0  0
 80 81  2  0  0  0  0
 58 82  1  0  0  0  0
 81 82  1  0  0  0  0
 82 83  2  0  0  0  0
 79 84  2  0  0  0  0
 83 84  1  0  0  0  0
 87 88  1  0  0  0  0
 88 89  1  0  0  0  0
 89 90  1  0  0  0  0
 90 91  1  0  0  0  0
 91 92  1  0  0  0  0
 88 93  1  0  0  0  0
 92 93  1  0  0  0  0
 92 94  1  0  0  0  0
 94 95  1  0  0  0  0
 95 96  1  0  0  0  0
 96 97  1  0  0  0  0
 97 98  1  0  0  0  0
 94 99  1  0  0  0  0
 98 99  1  0  0  0  0
 97100  1  0  0  0  0
100101  1  0  0  0  0
101102  2  0  0  0  0
102103  1  0  0  0  0
 85104  1  0  0  0  0
103104  2  0  0  0  0
100105  2  0  0  0  0
104105  1  0  0  0  0
 91106  1  0  0  0  0
106107  1  0  0  0  0
107108  1  0  0  0  0
108109  2  0  0  0  0
 86110  1  0  0  0  0
109110  1  0  0  0  0
110111  2  0  0  0  0
107112  2  0  0  0  0
111112  1  0  0  0  0
M  END
$$$$
