7WRE
  PyMOL3.1          3D                             0

 23 25  0  0  0  0  0  0  0  0999 V2000
   92.4680  127.5760  162.6220 C   0  0  0  0  0  0  0  0  0  0  0  0
   92.3690  126.1560  162.9530 C   0  0  0  0  0  0  0  0  0  0  0  0
   91.0350  125.6550  163.2050 C   0  0  0  0  0  0  0  0  0  0  0  0
   90.0280  125.9980  162.2660 N   0  0  0  0  0  0  0  0  0  0  0  0
   90.2700  127.2000  161.4420 C   0  0  0  0  0  0  0  0  0  0  0  0
   89.4690  127.5230  160.6410 O   0  0  0  0  0  0  0  0  0  0  0  0
   91.4990  128.0190  161.6060 N   0  0  0  0  0  0  0  0  0  0  0  0
   91.8060  129.1940  160.8540 C   0  0  0  0  0  0  0  0  0  0  0  0
   91.6520  130.4210  161.4370 C   0  0  0  0  0  0  0  0  0  0  0  0
   91.9800  131.5430  160.7120 C   0  0  0  0  0  0  0  0  0  0  0  0
   92.4590  131.4340  159.4250 C   0  0  0  0  0  0  0  0  0  0  0  0
   92.6240  130.1940  158.8530 C   0  0  0  0  0  0  0  0  0  0  0  0
   92.2980  129.0750  159.5780 C   0  0  0  0  0  0  0  0  0  0  0  0
   92.4620  127.8100  159.0190 O   0  0  0  0  0  0  0  0  0  0  0  0
   90.8990  124.5920  164.2670 C   0  0  0  0  0  0  0  0  0  0  0  0
   92.0570  124.0370  164.7440 C   0  0  0  0  0  0  0  0  0  0  0  0
   92.0060  123.0740  165.7240 C   0  0  0  0  0  0  0  0  0  0  0  0
   90.7860  122.6680  166.2340 C   0  0  0  0  0  0  0  0  0  0  0  0
   89.6210  123.2420  165.7540 C   0  0  0  0  0  0  0  0  0  0  0  0
   89.6830  124.2030  164.7640 C   0  0  0  0  0  0  0  0  0  0  0  0
   93.2580  122.5050  166.1760 N   0  0  0  0  0  0  0  0  0  0  0  0
   93.3010  121.7710  167.0930 O   0  0  0  0  0  0  0  0  0  0  0  0
   94.4240  122.8330  165.4750 O   0  0  0  0  0  0  0  0  0  0  0  0
  1  2  1  0  0  0  0
  1  7  1  0  0  0  0
  2  3  1  0  0  0  0
  3  4  1  0  0  0  0
  3 15  1  0  0  0  0
  4  5  1  0  0  0  0
  5  6  2  0  0  0  0
  5  7  1  0  0  0  0
  7  8  1  0  0  0  0
  8  9  4  0  0  0  0
  8 13  4  0  0  0  0
  9 10  4  0  0  0  0
 10 11  4  0  0  0  0
 11 12  4  0  0  0  0
 12 13  4  0  0  0  0
 13 14  1  0  0  0  0
 15 16  4  0  0  0  0
 15 20  4  0  0  0  0
 16 17  4  0  0  0  0
 17 18  4  0  0  0  0
 17 21  1  0  0  0  0
 18 19  4  0  0  0  0
 19 20  4  0  0  0  0
 21 22  4  0  0  0  0
 21 23  4  0  0  0  0
M  END
$$$$
