7WRE
  PyMOL3.1          3D                             0

 23 25  0  0  0  0  0  0  0  0999 V2000
  127.5760  161.0320  162.6230 C   0  0  0  0  0  0  0  0  0  0  0  0
  126.1570  161.1320  162.9530 C   0  0  0  0  0  0  0  0  0  0  0  0
  125.6560  162.4650  163.2050 C   0  0  0  0  0  0  0  0  0  0  0  0
  125.9980  163.4730  162.2660 N   0  0  0  0  0  0  0  0  0  0  0  0
  127.2010  163.2300  161.4430 C   0  0  0  0  0  0  0  0  0  0  0  0
  127.5230  164.0310  160.6420 O   0  0  0  0  0  0  0  0  0  0  0  0
  128.0190  162.0010  161.6060 N   0  0  0  0  0  0  0  0  0  0  0  0
  129.1940  161.6950  160.8540 C   0  0  0  0  0  0  0  0  0  0  0  0
  130.4210  161.8490  161.4380 C   0  0  0  0  0  0  0  0  0  0  0  0
  131.5430  161.5200  160.7130 C   0  0  0  0  0  0  0  0  0  0  0  0
  131.4350  161.0410  159.4260 C   0  0  0  0  0  0  0  0  0  0  0  0
  130.1950  160.8760  158.8540 C   0  0  0  0  0  0  0  0  0  0  0  0
  129.0760  161.2030  159.5790 C   0  0  0  0  0  0  0  0  0  0  0  0
  127.8100  161.0390  159.0190 O   0  0  0  0  0  0  0  0  0  0  0  0
  124.5920  162.6010  164.2680 C   0  0  0  0  0  0  0  0  0  0  0  0
  124.0370  161.4430  164.7450 C   0  0  0  0  0  0  0  0  0  0  0  0
  123.0740  161.4940  165.7240 C   0  0  0  0  0  0  0  0  0  0  0  0
  122.6680  162.7150  166.2340 C   0  0  0  0  0  0  0  0  0  0  0  0
  123.2420  163.8800  165.7550 C   0  0  0  0  0  0  0  0  0  0  0  0
  124.2030  163.8170  164.7640 C   0  0  0  0  0  0  0  0  0  0  0  0
  122.5050  160.2420  166.1770 N   0  0  0  0  0  0  0  0  0  0  0  0
  121.7710  160.1990  167.0930 O   0  0  0  0  0  0  0  0  0  0  0  0
  122.8330  159.0770  165.4760 O   0  0  0  0  0  0  0  0  0  0  0  0
  1  2  1  0  0  0  0
  1  7  1  0  0  0  0
  2  3  1  0  0  0  0
  3  4  1  0  0  0  0
  3 15  1  0  0  0  0
  4  5  1  0  0  0  0
  5  6  2  0  0  0  0
  5  7  1  0  0  0  0
  7  8  1  0  0  0  0
  8  9  4  0  0  0  0
  8 13  4  0  0  0  0
  9 10  4  0  0  0  0
 10 11  4  0  0  0  0
 11 12  4  0  0  0  0
 12 13  4  0  0  0  0
 13 14  1  0  0  0  0
 15 16  4  0  0  0  0
 15 20  4  0  0  0  0
 16 17  4  0  0  0  0
 17 18  4  0  0  0  0
 17 21  1  0  0  0  0
 18 19  4  0  0  0  0
 19 20  4  0  0  0  0
 21 22  4  0  0  0  0
 21 23  4  0  0  0  0
M  END
$$$$
