7L99
  PyMOL3.1          3D                             0

 32 35  0  0  0  0  0  0  0  0999 V2000
  -26.4898   15.0089   23.8641 C   0  0  0  0  0  0  0  0  0  0  0  0
  -27.8684   15.4759   23.4243 C   0  0  0  0  0  0  0  0  0  0  0  0
  -28.3320   16.4969   23.7864 O   0  0  0  0  0  0  0  0  0  0  0  0
  -28.6300   14.5996   22.5419 N   0  0  0  0  0  0  0  0  0  0  0  0
  -29.9761   14.9758   22.0414 C   0  0  0  0  0  0  0  0  0  0  0  0
  -30.0393   15.2212   20.6591 C   0  0  0  0  0  0  0  0  0  0  0  0
  -31.2586   15.5671   20.0751 C   0  0  0  0  0  0  0  0  0  0  0  0
  -32.4553   15.6927   20.8642 C   0  0  0  0  0  0  0  0  0  0  0  0
  -32.3957   15.4436   22.2438 C   0  0  0  0  0  0  0  0  0  0  0  0
  -31.1487   15.0887   22.8426 C   0  0  0  0  0  0  0  0  0  0  0  0
  -31.0972   14.8155   24.3525 C   0  0  0  0  0  0  0  0  0  0  0  0
  -31.2177   15.8141   18.6205 N   0  0  0  0  0  0  0  0  0  0  0  0
  -31.9205   16.9547   18.0340 C   0  0  0  0  0  0  0  0  0  0  0  0
  -32.5303   17.7110   18.6751 O   0  0  0  0  0  0  0  0  0  0  0  0
  -31.7780   17.1411   16.5194 C   0  0  0  0  0  0  0  0  0  0  0  0
  -32.7621   17.8810   15.7851 C   0  0  0  0  0  0  0  0  0  0  0  0
  -32.5955   18.0290   14.4036 C   0  0  0  0  0  0  0  0  0  0  0  0
  -31.4447   17.4876   13.7720 C   0  0  0  0  0  0  0  0  0  0  0  0
  -31.0384   17.4869   12.4916 N   0  0  0  0  0  0  0  0  0  0  0  0
  -29.8548   16.8334   12.3660 N   0  0  0  0  0  0  0  0  0  0  0  0
  -29.4561   16.3636   13.5271 C   0  0  0  0  0  0  0  0  0  0  0  0
  -30.4662   16.7728   14.5153 C   0  0  0  0  0  0  0  0  0  0  0  0
  -30.6331   16.6108   15.9128 C   0  0  0  0  0  0  0  0  0  0  0  0
  -28.1241   15.5608   13.7692 C   0  0  0  0  0  0  0  0  0  0  0  0
  -27.3722   15.8299   14.9175 C   0  0  0  0  0  0  0  0  0  0  0  0
  -26.1745   15.1517   15.1537 C   0  0  0  0  0  0  0  0  0  0  0  0
  -25.7077   14.2107   14.2128 C   0  0  0  0  0  0  0  0  0  0  0  0
  -26.4352   13.9570   13.0582 C   0  0  0  0  0  0  0  0  0  0  0  0
  -27.6432   14.6211   12.8212 C   0  0  0  0  0  0  0  0  0  0  0  0
  -28.4158   14.2903   11.5198 C   0  0  0  0  0  0  0  0  0  0  0  0
  -24.4543   13.5117   14.4279 N   0  0  0  0  0  0  0  0  0  0  0  0
  -31.7661   18.1195   11.3497 C   0  0  0  0  0  0  0  0  0  0  0  0
  1  2  1  0  0  0  0
  2  3  2  0  0  0  0
  2  4  1  0  0  0  0
  4  5  1  0  0  0  0
  5  6  1  0  0  0  0
  6  7  2  0  0  0  0
  7  8  1  0  0  0  0
  8  9  2  0  0  0  0
  5 10  2  0  0  0  0
  9 10  1  0  0  0  0
 10 11  1  0  0  0  0
  7 12  1  0  0  0  0
 12 13  1  0  0  0  0
 13 14  2  0  0  0  0
 13 15  1  0  0  0  0
 15 16  1  0  0  0  0
 16 17  2  0  0  0  0
 17 18  1  0  0  0  0
 18 19  1  0  0  0  0
 19 20  1  0  0  0  0
 20 21  2  0  0  0  0
 18 22  2  0  0  0  0
 21 22  1  0  0  0  0
 15 23  2  0  0  0  0
 22 23  1  0  0  0  0
 21 24  1  0  0  0  0
 24 25  2  0  0  0  0
 25 26  1  0  0  0  0
 26 27  2  0  0  0  0
 27 28  1  0  0  0  0
 24 29  1  0  0  0  0
 28 29  2  0  0  0  0
 29 30  1  0  0  0  0
 27 31  1  0  0  0  0
 19 32  1  0  0  0  0
M  END
$$$$
