7L99
  PyMOL3.1          3D                             0

 32 35  0  0  0  0  0  0  0  0999 V2000
  -15.2449   -4.9958    7.3141 C   0  0  0  0  0  0  0  0  0  0  0  0
  -15.8603   -3.6949    7.8106 C   0  0  0  0  0  0  0  0  0  0  0  0
  -16.8511   -3.2550    7.3575 O   0  0  0  0  0  0  0  0  0  0  0  0
  -15.1832   -3.0024    8.9055 N   0  0  0  0  0  0  0  0  0  0  0  0
  -15.6745   -1.7245    9.4911 C   0  0  0  0  0  0  0  0  0  0  0  0
  -16.1705   -1.7599   10.8100 C   0  0  0  0  0  0  0  0  0  0  0  0
  -16.5926   -0.5726   11.4109 C   0  0  0  0  0  0  0  0  0  0  0  0
  -16.5697    0.6938   10.7112 C   0  0  0  0  0  0  0  0  0  0  0  0
  -16.0692    0.7122    9.4005 C   0  0  0  0  0  0  0  0  0  0  0  0
  -15.6212   -0.4932    8.7862 C   0  0  0  0  0  0  0  0  0  0  0  0
  -15.0756   -0.4401    7.3430 C   0  0  0  0  0  0  0  0  0  0  0  0
  -17.0917   -0.7173   12.7767 N   0  0  0  0  0  0  0  0  0  0  0  0
  -18.1984    0.1110   13.2530 C   0  0  0  0  0  0  0  0  0  0  0  0
  -18.7138    0.9137   12.5874 O   0  0  0  0  0  0  0  0  0  0  0  0
  -18.6921   -0.1787   14.6688 C   0  0  0  0  0  0  0  0  0  0  0  0
  -19.4890    0.7693   15.3561 C   0  0  0  0  0  0  0  0  0  0  0  0
  -19.9535    0.4461   16.6314 C   0  0  0  0  0  0  0  0  0  0  0  0
  -19.6323   -0.8044   17.2145 C   0  0  0  0  0  0  0  0  0  0  0  0
  -19.9362   -1.3345   18.4131 N   0  0  0  0  0  0  0  0  0  0  0  0
  -19.4089   -2.5769   18.5309 N   0  0  0  0  0  0  0  0  0  0  0  0
  -18.7186   -2.8715   17.4465 C   0  0  0  0  0  0  0  0  0  0  0  0
  -18.8315   -1.7384   16.5233 C   0  0  0  0  0  0  0  0  0  0  0  0
  -18.3459   -1.4234   15.2259 C   0  0  0  0  0  0  0  0  0  0  0  0
  -17.9564   -4.2159   17.2260 C   0  0  0  0  0  0  0  0  0  0  0  0
  -17.9837   -4.8436   15.9821 C   0  0  0  0  0  0  0  0  0  0  0  0
  -17.3153   -6.0484   15.7974 C   0  0  0  0  0  0  0  0  0  0  0  0
  -16.5967   -6.6257   16.8573 C   0  0  0  0  0  0  0  0  0  0  0  0
  -16.5650   -5.9992   18.0853 C   0  0  0  0  0  0  0  0  0  0  0  0
  -17.2361   -4.7932   18.2856 C   0  0  0  0  0  0  0  0  0  0  0  0
  -17.1567   -4.1334   19.6856 C   0  0  0  0  0  0  0  0  0  0  0  0
  -15.8779   -7.8833   16.6807 N   0  0  0  0  0  0  0  0  0  0  0  0
  -20.7721   -0.6802   19.4697 C   0  0  0  0  0  0  0  0  0  0  0  0
  1  2  1  0  0  0  0
  2  3  2  0  0  0  0
  2  4  1  0  0  0  0
  4  5  1  0  0  0  0
  5  6  1  0  0  0  0
  6  7  2  0  0  0  0
  7  8  1  0  0  0  0
  8  9  2  0  0  0  0
  5 10  2  0  0  0  0
  9 10  1  0  0  0  0
 10 11  1  0  0  0  0
  7 12  1  0  0  0  0
 12 13  1  0  0  0  0
 13 14  2  0  0  0  0
 13 15  1  0  0  0  0
 15 16  1  0  0  0  0
 16 17  2  0  0  0  0
 17 18  1  0  0  0  0
 18 19  1  0  0  0  0
 19 20  1  0  0  0  0
 20 21  2  0  0  0  0
 18 22  2  0  0  0  0
 21 22  1  0  0  0  0
 15 23  2  0  0  0  0
 22 23  1  0  0  0  0
 21 24  1  0  0  0  0
 24 25  2  0  0  0  0
 25 26  1  0  0  0  0
 26 27  2  0  0  0  0
 27 28  1  0  0  0  0
 24 29  1  0  0  0  0
 28 29  2  0  0  0  0
 29 30  1  0  0  0  0
 27 31  1  0  0  0  0
 19 32  1  0  0  0  0
M  END
$$$$
