7L99
  PyMOL3.1          3D                             0

 32 35  0  0  0  0  0  0  0  0999 V2000
  -27.9361   14.6254   27.0534 C   0  0  0  0  0  0  0  0  0  0  0  0
  -26.5779   15.0521   27.5889 C   0  0  0  0  0  0  0  0  0  0  0  0
  -26.1569   16.1351   27.4472 O   0  0  0  0  0  0  0  0  0  0  0  0
  -25.7580   14.0622   28.2716 N   0  0  0  0  0  0  0  0  0  0  0  0
  -24.4355   14.4518   28.8310 C   0  0  0  0  0  0  0  0  0  0  0  0
  -24.3848   14.4819   30.2435 C   0  0  0  0  0  0  0  0  0  0  0  0
  -23.2115   14.8286   30.8873 C   0  0  0  0  0  0  0  0  0  0  0  0
  -22.0097   15.1686   30.1455 C   0  0  0  0  0  0  0  0  0  0  0  0
  -22.0675   15.1367   28.7421 C   0  0  0  0  0  0  0  0  0  0  0  0
  -23.2841   14.7774   28.0735 C   0  0  0  0  0  0  0  0  0  0  0  0
  -23.3295   14.7354   26.5364 C   0  0  0  0  0  0  0  0  0  0  0  0
  -23.2807   14.8254   32.3447 N   0  0  0  0  0  0  0  0  0  0  0  0
  -22.7084   15.9188   33.1241 C   0  0  0  0  0  0  0  0  0  0  0  0
  -22.2309   16.8616   32.6315 O   0  0  0  0  0  0  0  0  0  0  0  0
  -22.8809   15.8060   34.6475 C   0  0  0  0  0  0  0  0  0  0  0  0
  -21.9405   16.4518   35.5061 C   0  0  0  0  0  0  0  0  0  0  0  0
  -22.1409   16.3463   36.8838 C   0  0  0  0  0  0  0  0  0  0  0  0
  -23.2752   15.6592   37.3867 C   0  0  0  0  0  0  0  0  0  0  0  0
  -23.6813   15.4393   38.6513 N   0  0  0  0  0  0  0  0  0  0  0  0
  -24.8413   14.7272   38.6676 N   0  0  0  0  0  0  0  0  0  0  0  0
  -25.2191   14.4383   37.4310 C   0  0  0  0  0  0  0  0  0  0  0  0
  -24.2196   15.0420   36.5259 C   0  0  0  0  0  0  0  0  0  0  0  0
  -24.0279   15.1382   35.1264 C   0  0  0  0  0  0  0  0  0  0  0  0
  -26.5130   13.6455   37.0465 C   0  0  0  0  0  0  0  0  0  0  0  0
  -27.2483   14.0667   35.9408 C   0  0  0  0  0  0  0  0  0  0  0  0
  -28.4219   13.3958   35.5865 C   0  0  0  0  0  0  0  0  0  0  0  0
  -28.8795   12.3107   36.3516 C   0  0  0  0  0  0  0  0  0  0  0  0
  -28.1667   11.9030   37.4657 C   0  0  0  0  0  0  0  0  0  0  0  0
  -26.9833   12.5621   37.8218 C   0  0  0  0  0  0  0  0  0  0  0  0
  -26.2334   12.0628   39.0804 C   0  0  0  0  0  0  0  0  0  0  0  0
  -30.1213   11.6260   35.9990 N   0  0  0  0  0  0  0  0  0  0  0  0
  -22.9368   15.9270   39.8542 C   0  0  0  0  0  0  0  0  0  0  0  0
  1  2  1  0  0  0  0
  2  3  2  0  0  0  0
  2  4  1  0  0  0  0
  4  5  1  0  0  0  0
  5  6  1  0  0  0  0
  6  7  2  0  0  0  0
  7  8  1  0  0  0  0
  8  9  2  0  0  0  0
  5 10  2  0  0  0  0
  9 10  1  0  0  0  0
 10 11  1  0  0  0  0
  7 12  1  0  0  0  0
 12 13  1  0  0  0  0
 13 14  2  0  0  0  0
 13 15  1  0  0  0  0
 15 16  1  0  0  0  0
 16 17  2  0  0  0  0
 17 18  1  0  0  0  0
 18 19  1  0  0  0  0
 19 20  1  0  0  0  0
 20 21  2  0  0  0  0
 18 22  2  0  0  0  0
 21 22  1  0  0  0  0
 15 23  2  0  0  0  0
 22 23  1  0  0  0  0
 21 24  1  0  0  0  0
 24 25  2  0  0  0  0
 25 26  1  0  0  0  0
 26 27  2  0  0  0  0
 27 28  1  0  0  0  0
 24 29  1  0  0  0  0
 28 29  2  0  0  0  0
 29 30  1  0  0  0  0
 27 31  1  0  0  0  0
 19 32  1  0  0  0  0
M  END
$$$$
