7L99
  PyMOL3.1          3D                             0

 32 35  0  0  0  0  0  0  0  0999 V2000
  -32.3875    7.8310   27.0519 C   0  0  0  0  0  0  0  0  0  0  0  0
  -31.5294    8.0779   25.8144 C   0  0  0  0  0  0  0  0  0  0  0  0
  -31.9238    7.8005   24.7592 O   0  0  0  0  0  0  0  0  0  0  0  0
  -30.2078    8.6671   25.9689 N   0  0  0  0  0  0  0  0  0  0  0  0
  -29.3756    8.9383   24.7665 C   0  0  0  0  0  0  0  0  0  0  0  0
  -29.1292    7.9463   23.7928 C   0  0  0  0  0  0  0  0  0  0  0  0
  -28.3171    8.2504   22.6916 C   0  0  0  0  0  0  0  0  0  0  0  0
  -27.7879    9.5620   22.4983 C   0  0  0  0  0  0  0  0  0  0  0  0
  -28.0440   10.5475   23.4562 C   0  0  0  0  0  0  0  0  0  0  0  0
  -28.8426   10.2345   24.6038 C   0  0  0  0  0  0  0  0  0  0  0  0
  -29.1299   11.2926   25.6766 C   0  0  0  0  0  0  0  0  0  0  0  0
  -28.1930    7.2114   21.6748 N   0  0  0  0  0  0  0  0  0  0  0  0
  -28.1154    5.7742   21.9083 C   0  0  0  0  0  0  0  0  0  0  0  0
  -28.0090    5.2625   22.9485 O   0  0  0  0  0  0  0  0  0  0  0  0
  -28.1792    4.9626   20.6199 C   0  0  0  0  0  0  0  0  0  0  0  0
  -28.6261    5.6238   19.4291 C   0  0  0  0  0  0  0  0  0  0  0  0
  -28.7459    4.9074   18.2337 C   0  0  0  0  0  0  0  0  0  0  0  0
  -28.4404    3.5226   18.2590 C   0  0  0  0  0  0  0  0  0  0  0  0
  -28.4519    2.5660   17.3195 N   0  0  0  0  0  0  0  0  0  0  0  0
  -28.0773    1.3724   17.8356 N   0  0  0  0  0  0  0  0  0  0  0  0
  -27.8225    1.5035   19.1164 C   0  0  0  0  0  0  0  0  0  0  0  0
  -28.0394    2.8963   19.4655 C   0  0  0  0  0  0  0  0  0  0  0  0
  -27.9118    3.6120   20.6653 C   0  0  0  0  0  0  0  0  0  0  0  0
  -27.3508    0.3536   20.0496 C   0  0  0  0  0  0  0  0  0  0  0  0
  -26.0278   -0.0748   19.9842 C   0  0  0  0  0  0  0  0  0  0  0  0
  -25.5932   -1.1228   20.7878 C   0  0  0  0  0  0  0  0  0  0  0  0
  -26.5055   -1.7472   21.6551 C   0  0  0  0  0  0  0  0  0  0  0  0
  -27.8188   -1.3246   21.7131 C   0  0  0  0  0  0  0  0  0  0  0  0
  -28.2500   -0.2709   20.9037 C   0  0  0  0  0  0  0  0  0  0  0  0
  -29.7046    0.2331   20.9632 C   0  0  0  0  0  0  0  0  0  0  0  0
  -26.0528   -2.8379   22.5050 N   0  0  0  0  0  0  0  0  0  0  0  0
  -28.8103    2.7711   15.8885 C   0  0  0  0  0  0  0  0  0  0  0  0
  1  2  1  0  0  0  0
  2  3  2  0  0  0  0
  2  4  1  0  0  0  0
  4  5  1  0  0  0  0
  5  6  1  0  0  0  0
  6  7  2  0  0  0  0
  7  8  1  0  0  0  0
  8  9  2  0  0  0  0
  5 10  2  0  0  0  0
  9 10  1  0  0  0  0
 10 11  1  0  0  0  0
  7 12  1  0  0  0  0
 12 13  1  0  0  0  0
 13 14  2  0  0  0  0
 13 15  1  0  0  0  0
 15 16  1  0  0  0  0
 16 17  2  0  0  0  0
 17 18  1  0  0  0  0
 18 19  1  0  0  0  0
 19 20  1  0  0  0  0
 20 21  2  0  0  0  0
 18 22  2  0  0  0  0
 21 22  1  0  0  0  0
 15 23  2  0  0  0  0
 22 23  1  0  0  0  0
 21 24  1  0  0  0  0
 24 25  2  0  0  0  0
 25 26  1  0  0  0  0
 26 27  2  0  0  0  0
 27 28  1  0  0  0  0
 24 29  1  0  0  0  0
 28 29  2  0  0  0  0
 29 30  1  0  0  0  0
 27 31  1  0  0  0  0
 19 32  1  0  0  0  0
M  END
$$$$
