7L99
  PyMOL3.1          3D                             0

 32 35  0  0  0  0  0  0  0  0999 V2000
    9.4461   -8.6916   39.9248 C   0  0  0  0  0  0  0  0  0  0  0  0
    9.8499   -7.2388   39.6435 C   0  0  0  0  0  0  0  0  0  0  0  0
   10.7696   -6.7310   40.1479 O   0  0  0  0  0  0  0  0  0  0  0  0
    9.0394   -6.4634   38.7141 N   0  0  0  0  0  0  0  0  0  0  0  0
    9.3725   -5.0443   38.3919 C   0  0  0  0  0  0  0  0  0  0  0  0
    9.8619   -4.7686   37.0986 C   0  0  0  0  0  0  0  0  0  0  0  0
   10.1522   -3.4413   36.7510 C   0  0  0  0  0  0  0  0  0  0  0  0
   10.0040   -2.3584   37.6993 C   0  0  0  0  0  0  0  0  0  0  0  0
    9.5223   -2.6528   38.9692 C   0  0  0  0  0  0  0  0  0  0  0  0
    9.2001   -3.9931   39.3251 C   0  0  0  0  0  0  0  0  0  0  0  0
    8.6703   -4.2761   40.7464 C   0  0  0  0  0  0  0  0  0  0  0  0
   10.6554   -3.2553   35.3910 N   0  0  0  0  0  0  0  0  0  0  0  0
   11.6751   -2.2613   35.0544 C   0  0  0  0  0  0  0  0  0  0  0  0
   12.1515   -1.5390   35.8482 O   0  0  0  0  0  0  0  0  0  0  0  0
   12.1487   -2.2384   33.5919 C   0  0  0  0  0  0  0  0  0  0  0  0
   12.8455   -1.0954   33.0870 C   0  0  0  0  0  0  0  0  0  0  0  0
   13.3067   -1.1091   31.7622 C   0  0  0  0  0  0  0  0  0  0  0  0
   13.0688   -2.2520   30.9549 C   0  0  0  0  0  0  0  0  0  0  0  0
   13.3906   -2.5271   29.6758 N   0  0  0  0  0  0  0  0  0  0  0  0
   12.9624   -3.7668   29.3204 N   0  0  0  0  0  0  0  0  0  0  0  0
   12.3300   -4.3210   30.3314 C   0  0  0  0  0  0  0  0  0  0  0  0
   12.3710   -3.3830   31.4615 C   0  0  0  0  0  0  0  0  0  0  0  0
   11.8998   -3.3795   32.8056 C   0  0  0  0  0  0  0  0  0  0  0  0
   11.6975   -5.7448   30.2936 C   0  0  0  0  0  0  0  0  0  0  0  0
   11.8380   -6.5804   31.4034 C   0  0  0  0  0  0  0  0  0  0  0  0
   11.2910   -7.8604   31.3595 C   0  0  0  0  0  0  0  0  0  0  0  0
   10.5942   -8.3014   30.2109 C   0  0  0  0  0  0  0  0  0  0  0  0
   10.4605   -7.4726   29.1162 C   0  0  0  0  0  0  0  0  0  0  0  0
   11.0108   -6.1892   29.1422 C   0  0  0  0  0  0  0  0  0  0  0  0
   10.8183   -5.2990   27.8913 C   0  0  0  0  0  0  0  0  0  0  0  0
   10.0163   -9.6286   30.1697 N   0  0  0  0  0  0  0  0  0  0  0  0
   14.1263   -1.6137   28.7724 C   0  0  0  0  0  0  0  0  0  0  0  0
  1  2  1  0  0  0  0
  2  3  2  0  0  0  0
  2  4  1  0  0  0  0
  4  5  1  0  0  0  0
  5  6  1  0  0  0  0
  6  7  2  0  0  0  0
  7  8  1  0  0  0  0
  8  9  2  0  0  0  0
  5 10  2  0  0  0  0
  9 10  1  0  0  0  0
 10 11  1  0  0  0  0
  7 12  1  0  0  0  0
 12 13  1  0  0  0  0
 13 14  2  0  0  0  0
 13 15  1  0  0  0  0
 15 16  1  0  0  0  0
 16 17  2  0  0  0  0
 17 18  1  0  0  0  0
 18 19  1  0  0  0  0
 19 20  1  0  0  0  0
 20 21  2  0  0  0  0
 18 22  2  0  0  0  0
 21 22  1  0  0  0  0
 15 23  2  0  0  0  0
 22 23  1  0  0  0  0
 21 24  1  0  0  0  0
 24 25  2  0  0  0  0
 25 26  1  0  0  0  0
 26 27  2  0  0  0  0
 27 28  1  0  0  0  0
 24 29  1  0  0  0  0
 28 29  2  0  0  0  0
 29 30  1  0  0  0  0
 27 31  1  0  0  0  0
 19 32  1  0  0  0  0
M  END
$$$$
