8IO3
  PyMOL3.1          3D                             0

 35 38  0  0  0  0  0  0  0  0999 V2000
   89.1190   82.2210   94.6060 C   0  0  0  0  0  0  0  0  0  0  0  0
   89.8670   83.0680   93.7090 C   0  0  0  0  0  0  0  0  0  0  0  0
   88.0950   81.4010   93.7740 C   0  0  0  0  0  0  0  0  0  0  0  0
   89.0400   83.9860   92.9630 C   0  0  0  0  0  0  0  0  0  0  0  0
   89.9750   81.2830   95.6280 C   0  0  0  0  0  0  0  0  0  0  0  0
   87.9880   83.2030   92.1610 C   0  0  0  0  0  0  0  0  0  0  0  0
   86.4730   81.6450   92.3290 C   0  0  0  0  0  0  0  0  0  0  0  0
   91.8240   80.3390   95.0560 C   0  0  0  0  0  0  0  0  0  0  0  0
   85.2530   82.4760   91.9160 C   0  0  0  0  0  0  0  0  0  0  0  0
   92.0760   82.2280   96.1320 C   0  0  0  0  0  0  0  0  0  0  0  0
   92.1530   79.2600   96.0100 C   0  0  0  0  0  0  0  0  0  0  0  0
   93.2780   82.4030   96.1530 C   0  0  0  0  0  0  0  0  0  0  0  0
   93.5520   79.7230   97.1200 C   0  0  0  0  0  0  0  0  0  0  0  0
   94.0420   81.4410   97.0920 C   0  0  0  0  0  0  0  0  0  0  0  0
   84.6920   81.9880   90.5830 C   0  0  0  0  0  0  0  0  0  0  0  0
   94.1800   78.8820   97.9020 C   0  0  0  0  0  0  0  0  0  0  0  0
   95.0230   81.8740   97.8400 C   0  0  0  0  0  0  0  0  0  0  0  0
   83.8760   80.8710   90.5630 C   0  0  0  0  0  0  0  0  0  0  0  0
   95.3090   79.3800   98.7680 C   0  0  0  0  0  0  0  0  0  0  0  0
   87.2580   82.2870   92.9990 N   0  0  0  0  0  0  0  0  0  0  0  0
   91.4540   81.2720   95.5650 N   0  0  0  0  0  0  0  0  0  0  0  0
   91.4690   83.1100   96.6390 O   0  0  0  0  0  0  0  0  0  0  0  0
   95.9920   78.5000   99.6160 O   0  0  0  0  0  0  0  0  0  0  0  0
   96.7900   81.3770   99.5410 O   0  0  0  0  0  0  0  0  0  0  0  0
   82.5290   79.2790   89.3150 O   0  0  0  0  0  0  0  0  0  0  0  0
   83.1500   80.6130   86.9650 O   0  0  0  0  0  0  0  0  0  0  0  0
   85.0020   82.6520   89.4060 C   0  0  0  0  0  0  0  0  0  0  0  0
   95.7380   80.9230   98.7330 C   0  0  0  0  0  0  0  0  0  0  0  0
   83.3620   80.4070   89.3600 C   0  0  0  0  0  0  0  0  0  0  0  0
   84.4880   82.1950   88.2010 C   0  0  0  0  0  0  0  0  0  0  0  0
   83.6690   81.0750   88.1830 C   0  0  0  0  0  0  0  0  0  0  0  0
   97.2440   78.1030   99.1440 C   0  0  0  0  0  0  0  0  0  0  0  0
   96.8200   82.7570   99.7920 C   0  0  0  0  0  0  0  0  0  0  0  0
   82.6450   78.3660   90.3740 C   0  0  0  0  0  0  0  0  0  0  0  0
   82.3170   81.5330   86.3170 C   0  0  0  0  0  0  0  0  0  0  0  0
  1  2  1  0  0  0  0
  1  3  1  0  0  0  0
  2  4  1  0  0  0  0
  1  5  1  0  0  0  0
  4  6  1  0  0  0  0
  7  9  1  0  0  0  0
  8 11  1  0  0  0  0
 10 12  1  0  0  0  0
 11 13  1  0  0  0  0
 12 14  1  0  0  0  0
 13 14  1  0  0  0  0
  9 15  1  0  0  0  0
 13 16  2  0  0  0  0
 14 17  2  0  0  0  0
 15 18  2  0  0  0  0
 16 19  1  0  0  0  0
  3 20  1  0  0  0  0
  6 20  1  0  0  0  0
  7 20  1  0  0  0  0
  5 21  1  0  0  0  0
  8 21  1  0  0  0  0
 10 21  1  0  0  0  0
 10 22  2  0  0  0  0
 19 23  1  0  0  0  0
 15 27  1  0  0  0  0
 17 28  1  0  0  0  0
 19 28  2  0  0  0  0
 24 28  1  0  0  0  0
 18 29  1  0  0  0  0
 25 29  1  0  0  0  0
 27 30  2  0  0  0  0
 26 31  1  0  0  0  0
 29 31  2  0  0  0  0
 30 31  1  0  0  0  0
 23 32  1  0  0  0  0
 24 33  1  0  0  0  0
 25 34  1  0  0  0  0
 26 35  1  0  0  0  0
M  END
$$$$
