8IO3
  PyMOL3.1          3D                             0

 35 38  0  0  0  0  0  0  0  0999 V2000
   82.2110  121.2780   94.6010 C   0  0  0  0  0  0  0  0  0  0  0  0
   83.0660  120.5310   93.7100 C   0  0  0  0  0  0  0  0  0  0  0  0
   81.3910  122.2980   93.7640 C   0  0  0  0  0  0  0  0  0  0  0  0
   83.9800  121.3580   92.9600 C   0  0  0  0  0  0  0  0  0  0  0  0
   81.2690  120.4200   95.6190 C   0  0  0  0  0  0  0  0  0  0  0  0
   83.1930  122.4040   92.1530 C   0  0  0  0  0  0  0  0  0  0  0  0
   81.6370  123.9210   92.3210 C   0  0  0  0  0  0  0  0  0  0  0  0
   80.3400  118.5630   95.0440 C   0  0  0  0  0  0  0  0  0  0  0  0
   82.4700  125.1410   91.9110 C   0  0  0  0  0  0  0  0  0  0  0  0
   82.2210  118.3270   96.1360 C   0  0  0  0  0  0  0  0  0  0  0  0
   79.2540  118.2310   95.9880 C   0  0  0  0  0  0  0  0  0  0  0  0
   82.4030  117.1250   96.1630 C   0  0  0  0  0  0  0  0  0  0  0  0
   79.7150  116.8390   97.1080 C   0  0  0  0  0  0  0  0  0  0  0  0
   81.4360  116.3590   97.0970 C   0  0  0  0  0  0  0  0  0  0  0  0
   81.9850  125.7050   90.5780 C   0  0  0  0  0  0  0  0  0  0  0  0
   78.8720  116.2090   97.8850 C   0  0  0  0  0  0  0  0  0  0  0  0
   81.8680  115.3840   97.8530 C   0  0  0  0  0  0  0  0  0  0  0  0
   80.8690  126.5220   90.5600 C   0  0  0  0  0  0  0  0  0  0  0  0
   79.3690  115.0870   98.7600 C   0  0  0  0  0  0  0  0  0  0  0  0
   82.2780  123.1350   92.9900 N   0  0  0  0  0  0  0  0  0  0  0  0
   81.2660  118.9410   95.5600 N   0  0  0  0  0  0  0  0  0  0  0  0
   83.0950  118.9400   96.6490 O   0  0  0  0  0  0  0  0  0  0  0  0
   78.4850  114.4030   99.6040 O   0  0  0  0  0  0  0  0  0  0  0  0
   81.3650  113.6200   99.5580 O   0  0  0  0  0  0  0  0  0  0  0  0
   79.2790  127.8730   89.3120 O   0  0  0  0  0  0  0  0  0  0  0  0
   80.6150  127.2560   86.9630 O   0  0  0  0  0  0  0  0  0  0  0  0
   82.6500  125.3980   89.4020 C   0  0  0  0  0  0  0  0  0  0  0  0
   80.9150  114.6670   98.7400 C   0  0  0  0  0  0  0  0  0  0  0  0
   80.4060  127.0390   89.3570 C   0  0  0  0  0  0  0  0  0  0  0  0
   82.1950  125.9150   88.1980 C   0  0  0  0  0  0  0  0  0  0  0  0
   81.0750  126.7350   88.1800 C   0  0  0  0  0  0  0  0  0  0  0  0
   78.0980  113.1460   99.1340 C   0  0  0  0  0  0  0  0  0  0  0  0
   82.7510  113.5440   99.7590 C   0  0  0  0  0  0  0  0  0  0  0  0
   78.3660  127.7590   90.3710 C   0  0  0  0  0  0  0  0  0  0  0  0
   81.5380  128.0870   86.3150 C   0  0  0  0  0  0  0  0  0  0  0  0
  1  2  1  0  0  0  0
  1  3  1  0  0  0  0
  2  4  1  0  0  0  0
  1  5  1  0  0  0  0
  4  6  1  0  0  0  0
  7  9  1  0  0  0  0
  8 11  1  0  0  0  0
 10 12  1  0  0  0  0
 11 13  1  0  0  0  0
 12 14  1  0  0  0  0
 13 14  1  0  0  0  0
  9 15  1  0  0  0  0
 13 16  2  0  0  0  0
 14 17  2  0  0  0  0
 15 18  2  0  0  0  0
 16 19  1  0  0  0  0
  3 20  1  0  0  0  0
  6 20  1  0  0  0  0
  7 20  1  0  0  0  0
  5 21  1  0  0  0  0
  8 21  1  0  0  0  0
 10 21  1  0  0  0  0
 10 22  2  0  0  0  0
 19 23  1  0  0  0  0
 15 27  1  0  0  0  0
 17 28  1  0  0  0  0
 19 28  2  0  0  0  0
 24 28  1  0  0  0  0
 18 29  1  0  0  0  0
 25 29  1  0  0  0  0
 27 30  2  0  0  0  0
 26 31  1  0  0  0  0
 29 31  2  0  0  0  0
 30 31  1  0  0  0  0
 23 32  1  0  0  0  0
 24 33  1  0  0  0  0
 25 34  1  0  0  0  0
 26 35  1  0  0  0  0
M  END
$$$$
