8IO3
  PyMOL3.1          3D                             0

 35 38  0  0  0  0  0  0  0  0999 V2000
  121.2780  128.1890   94.6010 C   0  0  0  0  0  0  0  0  0  0  0  0
  120.5310  127.3340   93.7100 C   0  0  0  0  0  0  0  0  0  0  0  0
  122.2980  129.0090   93.7640 C   0  0  0  0  0  0  0  0  0  0  0  0
  121.3580  126.4200   92.9600 C   0  0  0  0  0  0  0  0  0  0  0  0
  120.4200  129.1310   95.6190 C   0  0  0  0  0  0  0  0  0  0  0  0
  122.4030  127.2070   92.1530 C   0  0  0  0  0  0  0  0  0  0  0  0
  123.9210  128.7630   92.3210 C   0  0  0  0  0  0  0  0  0  0  0  0
  118.5630  130.0600   95.0440 C   0  0  0  0  0  0  0  0  0  0  0  0
  125.1410  127.9300   91.9110 C   0  0  0  0  0  0  0  0  0  0  0  0
  118.3270  128.1790   96.1360 C   0  0  0  0  0  0  0  0  0  0  0  0
  118.2310  131.1460   95.9880 C   0  0  0  0  0  0  0  0  0  0  0  0
  117.1250  127.9970   96.1630 C   0  0  0  0  0  0  0  0  0  0  0  0
  116.8390  130.6850   97.1080 C   0  0  0  0  0  0  0  0  0  0  0  0
  116.3590  128.9640   97.0970 C   0  0  0  0  0  0  0  0  0  0  0  0
  125.7050  128.4150   90.5780 C   0  0  0  0  0  0  0  0  0  0  0  0
  116.2090  131.5280   97.8850 C   0  0  0  0  0  0  0  0  0  0  0  0
  115.3840  128.5320   97.8530 C   0  0  0  0  0  0  0  0  0  0  0  0
  126.5220  129.5310   90.5600 C   0  0  0  0  0  0  0  0  0  0  0  0
  115.0870  131.0310   98.7600 C   0  0  0  0  0  0  0  0  0  0  0  0
  123.1350  128.1220   92.9900 N   0  0  0  0  0  0  0  0  0  0  0  0
  118.9410  129.1340   95.5600 N   0  0  0  0  0  0  0  0  0  0  0  0
  118.9400  127.3050   96.6490 O   0  0  0  0  0  0  0  0  0  0  0  0
  114.4030  131.9150   99.6040 O   0  0  0  0  0  0  0  0  0  0  0  0
  113.6200  129.0350   99.5580 O   0  0  0  0  0  0  0  0  0  0  0  0
  127.8730  131.1210   89.3120 O   0  0  0  0  0  0  0  0  0  0  0  0
  127.2560  129.7850   86.9630 O   0  0  0  0  0  0  0  0  0  0  0  0
  125.3980  127.7500   89.4020 C   0  0  0  0  0  0  0  0  0  0  0  0
  114.6670  129.4860   98.7400 C   0  0  0  0  0  0  0  0  0  0  0  0
  127.0390  129.9940   89.3570 C   0  0  0  0  0  0  0  0  0  0  0  0
  125.9150  128.2050   88.1980 C   0  0  0  0  0  0  0  0  0  0  0  0
  126.7350  129.3250   88.1800 C   0  0  0  0  0  0  0  0  0  0  0  0
  113.1460  132.3020   99.1340 C   0  0  0  0  0  0  0  0  0  0  0  0
  113.5440  127.6490   99.7590 C   0  0  0  0  0  0  0  0  0  0  0  0
  127.7590  132.0340   90.3710 C   0  0  0  0  0  0  0  0  0  0  0  0
  128.0870  128.8620   86.3150 C   0  0  0  0  0  0  0  0  0  0  0  0
  1  2  1  0  0  0  0
  1  3  1  0  0  0  0
  2  4  1  0  0  0  0
  1  5  1  0  0  0  0
  4  6  1  0  0  0  0
  7  9  1  0  0  0  0
  8 11  1  0  0  0  0
 10 12  1  0  0  0  0
 11 13  1  0  0  0  0
 12 14  1  0  0  0  0
 13 14  1  0  0  0  0
  9 15  1  0  0  0  0
 13 16  2  0  0  0  0
 14 17  2  0  0  0  0
 15 18  2  0  0  0  0
 16 19  1  0  0  0  0
  3 20  1  0  0  0  0
  6 20  1  0  0  0  0
  7 20  1  0  0  0  0
  5 21  1  0  0  0  0
  8 21  1  0  0  0  0
 10 21  1  0  0  0  0
 10 22  2  0  0  0  0
 19 23  1  0  0  0  0
 15 27  1  0  0  0  0
 17 28  1  0  0  0  0
 19 28  2  0  0  0  0
 24 28  1  0  0  0  0
 18 29  1  0  0  0  0
 25 29  1  0  0  0  0
 27 30  2  0  0  0  0
 26 31  1  0  0  0  0
 29 31  2  0  0  0  0
 30 31  1  0  0  0  0
 23 32  1  0  0  0  0
 24 33  1  0  0  0  0
 25 34  1  0  0  0  0
 26 35  1  0  0  0  0
M  END
$$$$
