7WCM
  PyMOL3.1          3D                             0

 32 36  0  0  0  0  0  0  0  0999 V2000
  131.6220  122.2360  151.3610 C   0  0  0  0  0  0  0  0  0  0  0  0
  132.3930  123.3550  151.7050 C   0  0  0  0  0  0  0  0  0  0  0  0
  131.9670  124.6720  151.4340 C   0  0  0  0  0  0  0  0  0  0  0  0
  130.7200  124.7790  150.7980 C   0  0  0  0  0  0  0  0  0  0  0  0
  129.9470  123.6600  150.4530 C   0  0  0  0  0  0  0  0  0  0  0  0
  130.3640  122.3410  150.7180 C   0  0  0  0  0  0  0  0  0  0  0  0
  129.6280  121.2050  150.3910 O   0  0  0  0  0  0  0  0  0  0  0  0
  128.1900  121.2780  150.2080 C   0  0  0  0  0  0  0  0  0  0  0  0
  127.4460  119.9320  149.8490 C   0  0  0  0  0  0  0  0  0  0  0  0
  127.1840  118.9340  150.7350 C   0  0  0  0  0  0  0  0  0  0  0  0
  126.3620  117.5980  150.0530 S   0  0  0  0  0  0  0  0  0  0  0  0
  126.3490  118.4050  148.4840 C   0  0  0  0  0  0  0  0  0  0  0  0
  126.9460  119.6070  148.5290 N   0  0  0  0  0  0  0  0  0  0  0  0
  125.6860  117.6490  147.3310 C   0  0  0  0  0  0  0  0  0  0  0  0
  126.0920  118.1610  145.9420 C   0  0  0  0  0  0  0  0  0  0  0  0
  125.5430  117.3260  144.7680 C   0  0  0  0  0  0  0  0  0  0  0  0
  125.2860  115.8750  144.9980 N   0  0  0  0  0  0  0  0  0  0  0  0
  126.2050  115.4160  146.0710 C   0  0  0  0  0  0  0  0  0  0  0  0
  126.0280  116.1260  147.4210 C   0  0  0  0  0  0  0  0  0  0  0  0
  123.9420  115.2960  144.8270 C   0  0  0  0  0  0  0  0  0  0  0  0
  123.6890  114.0030  145.2800 N   0  0  0  0  0  0  0  0  0  0  0  0
  122.4450  113.5020  145.1010 C   0  0  0  0  0  0  0  0  0  0  0  0
  121.3580  114.1620  144.4920 C   0  0  0  0  0  0  0  0  0  0  0  0
  121.7250  115.4540  144.0730 C   0  0  0  0  0  0  0  0  0  0  0  0
  122.9410  116.0180  144.2170 N   0  0  0  0  0  0  0  0  0  0  0  0
  119.9800  113.5760  144.3060 C   0  0  0  0  0  0  0  0  0  0  0  0
  119.8610  112.5770  143.1510 C   0  0  0  0  0  0  0  0  0  0  0  0
  132.7690  125.8610  151.7920 N   0  0  0  0  0  0  0  0  0  0  0  0
  134.0690  125.9480  152.3080 C   0  0  0  0  0  0  0  0  0  0  0  0
  134.4220  127.2300  152.4880 N   0  0  0  0  0  0  0  0  0  0  0  0
  133.3380  127.9600  152.0790 N   0  0  0  0  0  0  0  0  0  0  0  0
  132.3600  127.1920  151.6690 N   0  0  0  0  0  0  0  0  0  0  0  0
  1  2  2  0  0  0  0
  2  3  1  0  0  0  0
  3  4  2  0  0  0  0
  4  5  1  0  0  0  0
  1  6  1  0  0  0  0
  5  6  2  0  0  0  0
  6  7  1  0  0  0  0
  7  8  1  0  0  0  0
  8  9  1  0  0  0  0
  9 10  2  0  0  0  0
 10 11  1  0  0  0  0
 11 12  1  0  0  0  0
  9 13  1  0  0  0  0
 12 13  2  0  0  0  0
 12 14  1  0  0  0  0
 14 15  1  0  0  0  0
 15 16  1  0  0  0  0
 16 17  1  0  0  0  0
 17 18  1  0  0  0  0
 14 19  1  0  0  0  0
 18 19  1  0  0  0  0
 17 20  1  0  0  0  0
 20 21  2  0  0  0  0
 21 22  1  0  0  0  0
 22 23  2  0  0  0  0
 23 24  1  0  0  0  0
 20 25  1  0  0  0  0
 24 25  2  0  0  0  0
 23 26  1  0  0  0  0
 26 27  1  0  0  0  0
  3 28  1  0  0  0  0
 28 29  1  0  0  0  0
 29 30  2  0  0  0  0
 30 31  1  0  0  0  0
 28 32  1  0  0  0  0
 31 32  2  0  0  0  0
M  END
$$$$
