8DWG
  PyMOL3.1          3D                             0

 25 27  0  0  0  0  0  0  0  0999 V2000
  150.4500  140.4750  111.3590 C   0  0  0  0  0  0  0  0  0  0  0  0
  150.9920  141.3670  110.4960 N   0  0  0  0  0  0  0  0  0  0  0  0
  149.9460  140.8050  112.4240 O   0  0  0  0  0  0  0  0  0  0  0  0
  149.3230  140.0540  108.0840 S   0  0  0  0  0  0  0  0  0  0  0  0
  151.3770  142.7010  110.7560 C   0  0  0  0  0  0  0  0  0  0  0  0
  150.6900  139.3540  108.6220 N   0  0  0  0  0  0  0  0  0  0  0  0
  151.8350  142.8060  108.4570 O   0  0  0  0  0  0  0  0  0  0  0  0
  151.8320  143.4540  109.6590 C   0  0  0  0  0  0  0  0  0  0  0  0
  148.4210  140.1400  109.1910 O   0  0  0  0  0  0  0  0  0  0  0  0
  152.2860  143.5350  107.3100 C   0  0  0  0  0  0  0  0  0  0  0  0
  149.7040  141.2500  107.4010 O   0  0  0  0  0  0  0  0  0  0  0  0
  152.2930  142.5960  106.1440 C   0  0  0  0  0  0  0  0  0  0  0  0
  152.2400  144.7710  109.8400 C   0  0  0  0  0  0  0  0  0  0  0  0
  152.2000  145.3360  111.1000 C   0  0  0  0  0  0  0  0  0  0  0  0
  151.7610  144.6020  112.1770 C   0  0  0  0  0  0  0  0  0  0  0  0
  151.3570  143.2870  112.0090 C   0  0  0  0  0  0  0  0  0  0  0  0
  150.5870  139.0190  111.0190 C   0  0  0  0  0  0  0  0  0  0  0  0
  150.7270  138.5080  109.7110 C   0  0  0  0  0  0  0  0  0  0  0  0
  148.5940  138.9860  106.8990 C   0  0  0  0  0  0  0  0  0  0  0  0
  148.2140  137.6150  107.3390 C   0  0  0  0  0  0  0  0  0  0  0  0
  147.1600  138.6390  107.1030 C   0  0  0  0  0  0  0  0  0  0  0  0
  150.8580  137.1420  109.5060 C   0  0  0  0  0  0  0  0  0  0  0  0
  150.8760  136.2800  110.5780 C   0  0  0  0  0  0  0  0  0  0  0  0
  150.7630  136.7660  111.8560 C   0  0  0  0  0  0  0  0  0  0  0  0
  150.6240  138.1190  112.0680 C   0  0  0  0  0  0  0  0  0  0  0  0
  1  2  1  0  0  0  0
  1  3  2  0  0  0  0
  2  5  1  0  0  0  0
  4  6  1  0  0  0  0
  5  8  1  0  0  0  0
  7  8  1  0  0  0  0
  4  9  2  0  0  0  0
  7 10  1  0  0  0  0
  4 11  2  0  0  0  0
 10 12  1  0  0  0  0
  8 13  2  0  0  0  0
 13 14  1  0  0  0  0
 14 15  2  0  0  0  0
  5 16  2  0  0  0  0
 15 16  1  0  0  0  0
  1 17  1  0  0  0  0
  6 18  1  0  0  0  0
 17 18  1  0  0  0  0
  4 19  1  0  0  0  0
 19 20  1  0  0  0  0
 19 21  1  0  0  0  0
 20 21  1  0  0  0  0
 18 22  2  0  0  0  0
 22 23  1  0  0  0  0
 23 24  2  0  0  0  0
 17 25  2  0  0  0  0
 24 25  1  0  0  0  0
M  END
$$$$
