8R4U
  PyMOL3.1          3D                             0

 35 39  0  0  0  0  0  0  0  0999 V2000
  -29.0720   26.5780  -28.1880 Cl  0  0  0  0  0  0  0  0  0  0  0  0
  -36.1450   28.0410  -23.3970 C   0  0  0  0  0  0  0  0  0  0  0  0
  -35.0480   28.8910  -22.9560 N   0  0  0  0  0  0  0  0  0  0  0  0
  -33.7530   28.4850  -23.3670 C   0  0  0  0  0  0  0  0  0  0  0  0
  -32.7380   29.2700  -22.9650 N   0  0  0  0  0  0  0  0  0  0  0  0
  -31.4950   28.9130  -23.3330 C   0  0  0  0  0  0  0  0  0  0  0  0
  -31.2000   27.7970  -24.0930 C   0  0  0  0  0  0  0  0  0  0  0  0
  -29.8420   27.4550  -24.4900 C   0  0  0  0  0  0  0  0  0  0  0  0
  -29.6020   26.3640  -25.2350 C   0  0  0  0  0  0  0  0  0  0  0  0
  -30.7410   25.4770  -25.6750 C   0  0  0  0  0  0  0  0  0  0  0  0
  -30.5130   24.4980  -26.3660 O   0  0  0  0  0  0  0  0  0  0  0  0
  -32.0260   25.8560  -25.2840 N   0  0  0  0  0  0  0  0  0  0  0  0
  -33.1220   25.0280  -25.7310 C   0  0  0  0  0  0  0  0  0  0  0  0
  -33.7630   25.5860  -26.9860 C   0  0  0  0  0  0  0  0  0  0  0  0
  -32.7700   26.2100  -27.8160 O   0  0  0  0  0  0  0  0  0  0  0  0
  -33.2420   26.6310  -29.1080 C   0  0  0  0  0  0  0  0  0  0  0  0
  -33.9100   25.4990  -29.8860 C   0  0  0  0  0  0  0  0  0  0  0  0
  -34.5900   26.0400  -31.0420 N   0  0  0  0  0  0  0  0  0  0  0  0
  -34.9680   24.9360  -28.9390 C   0  0  0  0  0  0  0  0  0  0  0  0
  -34.4130   24.5250  -27.6850 O   0  0  0  0  0  0  0  0  0  0  0  0
  -32.2850   27.0310  -24.4870 C   0  0  0  0  0  0  0  0  0  0  0  0
  -33.5430   27.3820  -24.1170 N   0  0  0  0  0  0  0  0  0  0  0  0
  -28.2220   26.0470  -25.6760 C   0  0  0  0  0  0  0  0  0  0  0  0
  -27.2650   25.6780  -24.7280 C   0  0  0  0  0  0  0  0  0  0  0  0
  -25.9640   25.3570  -25.1260 C   0  0  0  0  0  0  0  0  0  0  0  0
  -25.6130   25.3930  -26.4760 C   0  0  0  0  0  0  0  0  0  0  0  0
  -26.5670   25.7730  -27.4260 C   0  0  0  0  0  0  0  0  0  0  0  0
  -27.8650   26.1120  -27.0270 C   0  0  0  0  0  0  0  0  0  0  0  0
  -24.2760   24.9980  -26.8970 C   0  0  0  0  0  0  0  0  0  0  0  0
  -24.2320   23.8660  -27.6360 N   0  0  0  0  0  0  0  0  0  0  0  0
  -23.0140   23.4520  -28.0560 C   0  0  0  0  0  0  0  0  0  0  0  0
  -21.8240   24.1080  -27.7880 C   0  0  0  0  0  0  0  0  0  0  0  0
  -21.8950   25.2620  -27.0180 C   0  0  0  0  0  0  0  0  0  0  0  0
  -23.1310   25.7040  -26.5640 C   0  0  0  0  0  0  0  0  0  0  0  0
  -23.2000   26.8170  -25.8250 F   0  0  0  0  0  0  0  0  0  0  0  0
  2  3  1  0  0  0  0
  3  4  1  0  0  0  0
  4  5  2  0  0  0  0
  5  6  1  0  0  0  0
  6  7  2  0  0  0  0
  7  8  1  0  0  0  0
  8  9  2  0  0  0  0
  9 10  1  0  0  0  0
 10 11  2  0  0  0  0
 10 12  1  0  0  0  0
 12 13  1  0  0  0  0
 13 14  1  0  0  0  0
 14 15  1  0  0  0  0
 15 16  1  0  0  0  0
 16 17  1  0  0  0  0
 17 18  1  0  0  0  0
 17 19  1  0  0  0  0
 14 20  1  0  0  0  0
 19 20  1  0  0  0  0
  7 21  1  0  0  0  0
 12 21  1  0  0  0  0
  4 22  1  0  0  0  0
 21 22  2  0  0  0  0
  9 23  1  0  0  0  0
 23 24  2  0  0  0  0
 24 25  1  0  0  0  0
 25 26  2  0  0  0  0
 26 27  1  0  0  0  0
  1 28  1  0  0  0  0
 23 28  1  0  0  0  0
 27 28  2  0  0  0  0
 26 29  1  0  0  0  0
 29 30  2  0  0  0  0
 30 31  1  0  0  0  0
 31 32  2  0  0  0  0
 32 33  1  0  0  0  0
 29 34  1  0  0  0  0
 33 34  2  0  0  0  0
 34 35  1  0  0  0  0
M  END
$$$$
