9FQJ
  PyMOL3.1          3D                             0

 27 30  0  0  0  0  0  0  0  0999 V2000
   17.7710   20.6490   12.5840 N   0  0  0  0  0  0  0  0  0  0  0  0
   19.4010   24.1560   14.3190 C   0  0  0  0  0  0  0  0  0  0  0  0
   20.7670   20.6060   10.6710 O   0  0  0  0  0  0  0  0  0  0  0  0
   18.8580   22.9090   13.6800 C   0  0  0  0  0  0  0  0  0  0  0  0
   17.6610   22.4720   14.1250 N   0  0  0  0  0  0  0  0  0  0  0  0
   23.8200   16.8000   11.9150 O   0  0  0  0  0  0  0  0  0  0  0  0
   19.5430   22.2350   12.6830 C   0  0  0  0  0  0  0  0  0  0  0  0
   18.9100   19.2650   10.6360 N   0  0  0  0  0  0  0  0  0  0  0  0
   23.1510   16.6750    9.8250 O   0  0  0  0  0  0  0  0  0  0  0  0
   18.9590   21.1000   12.1590 C   0  0  0  0  0  0  0  0  0  0  0  0
   22.6080   14.9990   11.3290 N   0  0  0  0  0  0  0  0  0  0  0  0
   17.1740   21.3520   13.5500 C   0  0  0  0  0  0  0  0  0  0  0  0
   15.8460   20.8050   13.9990 C   0  0  0  0  0  0  0  0  0  0  0  0
   14.8940   20.2460   12.9720 C   0  0  0  0  0  0  0  0  0  0  0  0
   15.5980   19.3210   13.8960 C   0  0  0  0  0  0  0  0  0  0  0  0
   19.6460   20.3070   11.0800 C   0  0  0  0  0  0  0  0  0  0  0  0
   19.2950   18.1720    9.8310 C   0  0  0  0  0  0  0  0  0  0  0  0
   18.2710   17.5610    9.1190 C   0  0  0  0  0  0  0  0  0  0  0  0
   18.5550   16.4750    8.3090 C   0  0  0  0  0  0  0  0  0  0  0  0
   19.8530   16.0120    8.1990 C   0  0  0  0  0  0  0  0  0  0  0  0
   20.8870   16.6140    8.9060 C   0  0  0  0  0  0  0  0  0  0  0  0
   20.6030   17.7020    9.7280 C   0  0  0  0  0  0  0  0  0  0  0  0
   22.3120   16.0770    8.7810 C   0  0  0  0  0  0  0  0  0  0  0  0
   22.3050   14.5530    8.9540 C   0  0  0  0  0  0  0  0  0  0  0  0
   21.8760   14.1800   10.3600 C   0  0  0  0  0  0  0  0  0  0  0  0
   23.2180   16.1640   11.0840 C   0  0  0  0  0  0  0  0  0  0  0  0
   22.9380   16.4890    7.4540 C   0  0  0  0  0  0  0  0  0  0  0  0
  2  4  1  0  0  0  0
  4  5  1  0  0  0  0
  4  7  2  0  0  0  0
  1 10  2  0  0  0  0
  7 10  1  0  0  0  0
  1 12  1  0  0  0  0
  5 12  2  0  0  0  0
 12 13  1  0  0  0  0
 13 14  1  0  0  0  0
 13 15  1  0  0  0  0
 14 15  1  0  0  0  0
  3 16  2  0  0  0  0
  8 16  1  0  0  0  0
 10 16  1  0  0  0  0
  8 17  1  0  0  0  0
 17 18  2  0  0  0  0
 18 19  1  0  0  0  0
 19 20  2  0  0  0  0
 20 21  1  0  0  0  0
 17 22  1  0  0  0  0
 21 22  2  0  0  0  0
  9 23  1  0  0  0  0
 21 23  1  0  0  0  0
 23 24  1  0  0  0  0
 11 25  1  0  0  0  0
 24 25  1  0  0  0  0
  6 26  2  0  0  0  0
  9 26  1  0  0  0  0
 11 26  1  0  0  0  0
 23 27  1  0  0  0  0
M  END
$$$$
