7S6U
  PyMOL3.1          3D                             0

 26 28  0  0  0  0  0  0  0  0999 V2000
   59.3820   30.6970   46.5190 C   0  0  0  0  0  0  0  0  0  0  0  0
   61.4230   29.7110   45.4960 N   0  0  0  0  0  0  0  0  0  0  0  0
   56.0330   36.9170   41.8610 O   0  0  0  0  0  0  0  0  0  0  0  0
   57.3000   37.5230   42.0860 S   0  0  0  0  0  0  0  0  0  0  0  0
   60.3630   30.5090   45.4120 C   0  0  0  0  0  0  0  0  0  0  0  0
   62.5790   31.9400   39.5700 N   0  0  0  0  0  0  0  0  0  0  0  0
   57.4540   38.8200   41.4220 O   0  0  0  0  0  0  0  0  0  0  0  0
   62.1040   29.9150   44.3390 C   0  0  0  0  0  0  0  0  0  0  0  0
   61.3120   33.7900   39.8240 N   0  0  0  0  0  0  0  0  0  0  0  0
   61.4430   30.7820   43.5020 C   0  0  0  0  0  0  0  0  0  0  0  0
   61.4240   32.3430   41.6480 N   0  0  0  0  0  0  0  0  0  0  0  0
   61.8480   31.1790   42.1430 C   0  0  0  0  0  0  0  0  0  0  0  0
   60.3650   31.2550   44.2590 N   0  0  0  0  0  0  0  0  0  0  0  0
   62.6540   30.3710   41.3610 C   0  0  0  0  0  0  0  0  0  0  0  0
   63.0210   30.8130   40.1110 C   0  0  0  0  0  0  0  0  0  0  0  0
   61.7940   32.6610   40.3980 C   0  0  0  0  0  0  0  0  0  0  0  0
   60.3400   34.6860   40.2890 C   0  0  0  0  0  0  0  0  0  0  0  0
   59.3310   35.2170   39.4850 C   0  0  0  0  0  0  0  0  0  0  0  0
   58.4120   36.1220   40.0230 C   0  0  0  0  0  0  0  0  0  0  0  0
   58.5210   36.4580   41.3550 C   0  0  0  0  0  0  0  0  0  0  0  0
   57.6540   37.5730   43.7560 C   0  0  0  0  0  0  0  0  0  0  0  0
   59.5390   35.9630   42.1390 C   0  0  0  0  0  0  0  0  0  0  0  0
   60.4470   35.0770   41.6020 C   0  0  0  0  0  0  0  0  0  0  0  0
   59.2920   32.1260   43.7750 C   0  0  0  0  0  0  0  0  0  0  0  0
   59.1210   33.3960   44.6500 C   0  0  0  0  0  0  0  0  0  0  0  0
   57.9800   31.3420   43.6300 C   0  0  0  0  0  0  0  0  0  0  0  0
  3  4  2  0  0  0  0
  1  5  1  0  0  0  0
  2  5  2  0  0  0  0
  4  7  2  0  0  0  0
  2  8  1  0  0  0  0
  8 10  2  0  0  0  0
 10 12  1  0  0  0  0
 11 12  2  0  0  0  0
  5 13  1  0  0  0  0
 10 13  1  0  0  0  0
 12 14  1  0  0  0  0
  6 15  1  0  0  0  0
 14 15  2  0  0  0  0
  6 16  2  0  0  0  0
  9 16  1  0  0  0  0
 11 16  1  0  0  0  0
  9 17  1  0  0  0  0
 17 18  1  0  0  0  0
 18 19  2  0  0  0  0
  4 20  1  0  0  0  0
 19 20  1  0  0  0  0
  4 21  1  0  0  0  0
 20 22  2  0  0  0  0
 17 23  2  0  0  0  0
 22 23  1  0  0  0  0
 13 24  1  0  0  0  0
 24 25  1  0  0  0  0
 24 26  1  0  0  0  0
M  END
$$$$
