8JZX
  PyMOL3.1          3D                             0

 64 70  0  0  0  0  0  0  0  0999 V2000
  133.7790  131.7230  119.4210 C   0  0  0  0  0  0  0  0  0  0  0  0
  133.5730  131.6220  117.9100 C   0  0  0  0  0  0  0  0  0  0  0  0
  133.4130  132.9270  117.4460 O   0  0  0  0  0  0  0  0  0  0  0  0
  133.1160  133.1290  116.0880 C   0  0  0  0  0  0  0  0  0  0  0  0
  134.1310  133.1570  115.1480 C   0  0  0  0  0  0  0  0  0  0  0  0
  133.8410  133.3850  113.8100 C   0  0  0  0  0  0  0  0  0  0  0  0
  132.5320  133.6160  113.4230 C   0  0  0  0  0  0  0  0  0  0  0  0
  131.5160  133.6130  114.3670 C   0  0  0  0  0  0  0  0  0  0  0  0
  131.8100  133.3830  115.7010 C   0  0  0  0  0  0  0  0  0  0  0  0
  132.1730  133.8780  111.9590 C   0  0  0  0  0  0  0  0  0  0  0  0
  133.1230  133.9860  111.0090 N   0  0  0  0  0  0  0  0  0  0  0  0
  132.7670  134.2240  109.6820 C   0  0  0  0  0  0  0  0  0  0  0  0
  133.7840  134.3360  108.6890 C   0  0  0  0  0  0  0  0  0  0  0  0
  133.4400  134.5690  107.3630 C   0  0  0  0  0  0  0  0  0  0  0  0
  132.0970  134.7010  107.0070 C   0  0  0  0  0  0  0  0  0  0  0  0
  131.1030  134.5940  107.9740 C   0  0  0  0  0  0  0  0  0  0  0  0
  131.4550  134.3510  109.3340 C   0  0  0  0  0  0  0  0  0  0  0  0
  130.4750  134.2380  110.3300 C   0  0  0  0  0  0  0  0  0  0  0  0
  130.8360  134.0080  111.6190 C   0  0  0  0  0  0  0  0  0  0  0  0
  128.9840  134.3750  110.0160 C   0  0  0  0  0  0  0  0  0  0  0  0
  128.4180  133.5360  109.4010 O   0  0  0  0  0  0  0  0  0  0  0  0
  128.2680  135.5470  110.5020 N   0  0  0  0  0  0  0  0  0  0  0  0
  126.8460  135.7180  110.2410 C   0  0  0  0  0  0  0  0  0  0  0  0
  126.5190  137.1930  109.9850 C   0  0  0  0  0  0  0  0  0  0  0  0
  125.3610  137.7400  110.8290 C   0  0  0  0  0  0  0  0  0  0  0  0
  124.4320  136.9670  110.9250 N   0  0  0  0  0  0  0  0  0  0  0  0
  123.4830  137.3170  109.8990 C   0  0  0  0  0  0  0  0  0  0  0  0
  122.1910  136.5000  109.9840 C   0  0  0  0  0  0  0  0  0  0  0  0
  121.6200  136.5600  111.3070 C   0  0  0  0  0  0  0  0  0  0  0  0
  122.5510  136.2310  112.3600 C   0  0  0  0  0  0  0  0  0  0  0  0
  123.8660  137.0100  112.2580 C   0  0  0  0  0  0  0  0  0  0  0  0
  124.8200  136.4110  113.2970 C   0  0  0  0  0  0  0  0  0  0  0  0
  133.1030  138.0220  149.8280 C   0  0  0  0  0  0  0  0  0  0  0  0
  132.8470  138.1070  151.3330 C   0  0  0  0  0  0  0  0  0  0  0  0
  132.7780  136.7940  151.7950 O   0  0  0  0  0  0  0  0  0  0  0  0
  132.4590  136.5690  153.1450 C   0  0  0  0  0  0  0  0  0  0  0  0
  133.4470  136.6220  154.1130 C   0  0  0  0  0  0  0  0  0  0  0  0
  133.1380  136.3720  155.4430 C   0  0  0  0  0  0  0  0  0  0  0  0
  131.8410  136.0390  155.7940 C   0  0  0  0  0  0  0  0  0  0  0  0
  130.8550  135.9620  154.8220 C   0  0  0  0  0  0  0  0  0  0  0  0
  131.1670  136.2140  153.4960 C   0  0  0  0  0  0  0  0  0  0  0  0
  131.4630  135.7510  157.2480 C   0  0  0  0  0  0  0  0  0  0  0  0
  132.3910  135.7180  158.2250 N   0  0  0  0  0  0  0  0  0  0  0  0
  132.0180  135.4530  159.5420 C   0  0  0  0  0  0  0  0  0  0  0  0
  133.0120  135.4220  160.5630 C   0  0  0  0  0  0  0  0  0  0  0  0
  132.6510  135.1640  161.8800 C   0  0  0  0  0  0  0  0  0  0  0  0
  131.3130  134.9260  162.1980 C   0  0  0  0  0  0  0  0  0  0  0  0
  130.3410  134.9540  161.2040 C   0  0  0  0  0  0  0  0  0  0  0  0
  130.7110  135.2240  159.8530 C   0  0  0  0  0  0  0  0  0  0  0  0
  129.7530  135.2590  158.8300 C   0  0  0  0  0  0  0  0  0  0  0  0
  130.1310  135.5160  157.5510 C   0  0  0  0  0  0  0  0  0  0  0  0
  128.2690  135.0050  159.1030 C   0  0  0  0  0  0  0  0  0  0  0  0
  127.6220  135.7970  159.6990 O   0  0  0  0  0  0  0  0  0  0  0  0
  127.6620  133.7800  158.6000 N   0  0  0  0  0  0  0  0  0  0  0  0
  126.2510  133.4980  158.8220 C   0  0  0  0  0  0  0  0  0  0  0  0
  126.0340  132.0020  159.0720 C   0  0  0  0  0  0  0  0  0  0  0  0
  124.9470  131.3650  158.1980 C   0  0  0  0  0  0  0  0  0  0  0  0
  123.9630  132.0620  158.0740 N   0  0  0  0  0  0  0  0  0  0  0  0
  123.0160  131.6390  159.0740 C   0  0  0  0  0  0  0  0  0  0  0  0
  121.6660  132.3520  158.9500 C   0  0  0  0  0  0  0  0  0  0  0  0
  121.1390  132.2470  157.6120 C   0  0  0  0  0  0  0  0  0  0  0  0
  122.0710  132.6470  156.5850 C   0  0  0  0  0  0  0  0  0  0  0  0
  123.4400  131.9740  156.7260 C   0  0  0  0  0  0  0  0  0  0  0  0
  124.3720  132.6460  155.7120 C   0  0  0  0  0  0  0  0  0  0  0  0
  1  2  1  0  0  0  0
  2  3  1  0  0  0  0
  3  4  1  0  0  0  0
  4  5  2  0  0  0  0
  5  6  1  0  0  0  0
  6  7  2  0  0  0  0
  7  8  1  0  0  0  0
  4  9  1  0  0  0  0
  8  9  2  0  0  0  0
  7 10  1  0  0  0  0
 10 11  2  0  0  0  0
 11 12  1  0  0  0  0
 12 13  2  0  0  0  0
 13 14  1  0  0  0  0
 14 15  2  0  0  0  0
 15 16  1  0  0  0  0
 12 17  1  0  0  0  0
 16 17  2  0  0  0  0
 17 18  1  0  0  0  0
 10 19  1  0  0  0  0
 18 19  2  0  0  0  0
 18 20  1  0  0  0  0
 20 21  2  0  0  0  0
 20 22  1  0  0  0  0
 22 23  1  0  0  0  0
 23 24  1  0  0  0  0
 24 25  1  0  0  0  0
 25 26  1  0  0  0  0
 26 27  1  0  0  0  0
 27 28  1  0  0  0  0
 28 29  1  0  0  0  0
 29 30  1  0  0  0  0
 26 31  1  0  0  0  0
 30 31  1  0  0  0  0
 31 32  1  0  0  0  0
 33 34  1  0  0  0  0
 34 35  1  0  0  0  0
 35 36  1  0  0  0  0
 36 37  2  0  0  0  0
 37 38  1  0  0  0  0
 38 39  2  0  0  0  0
 39 40  1  0  0  0  0
 36 41  1  0  0  0  0
 40 41  2  0  0  0  0
 39 42  1  0  0  0  0
 42 43  2  0  0  0  0
 43 44  1  0  0  0  0
 44 45  2  0  0  0  0
 45 46  1  0  0  0  0
 46 47  2  0  0  0  0
 47 48  1  0  0  0  0
 44 49  1  0  0  0  0
 48 49  2  0  0  0  0
 49 50  1  0  0  0  0
 42 51  1  0  0  0  0
 50 51  2  0  0  0  0
 50 52  1  0  0  0  0
 52 53  2  0  0  0  0
 52 54  1  0  0  0  0
 54 55  1  0  0  0  0
 55 56  1  0  0  0  0
 56 57  1  0  0  0  0
 57 58  1  0  0  0  0
 58 59  1  0  0  0  0
 59 60  1  0  0  0  0
 60 61  1  0  0  0  0
 61 62  1  0  0  0  0
 58 63  1  0  0  0  0
 62 63  1  0  0  0  0
 63 64  1  0  0  0  0
M  END
$$$$
