8J6J
  PyMOL3.1          3D                             0

 17 18  0  0  0  0  0  0  0  0999 V2000
  109.6960  119.3720   80.5800 Cl  0  0  0  0  0  0  0  0  0  0  0  0
  114.3230  115.6550   87.3530 C   0  0  0  0  0  0  0  0  0  0  0  0
  114.3560  117.1170   86.9100 C   0  0  0  0  0  0  0  0  0  0  0  0
  112.9420  117.6940   86.9270 C   0  0  0  0  0  0  0  0  0  0  0  0
  112.0870  116.9340   85.9190 C   0  0  0  0  0  0  0  0  0  0  0  0
  112.9280  116.6420   84.6810 C   0  0  0  0  0  0  0  0  0  0  0  0
  112.1540  115.8450   83.7510 N   0  0  0  0  0  0  0  0  0  0  0  0
  112.1800  114.3860   83.8400 C   0  0  0  0  0  0  0  0  0  0  0  0
  112.8360  113.8570   84.6720 O   0  0  0  0  0  0  0  0  0  0  0  0
  111.4090  113.5910   82.9170 N   0  0  0  0  0  0  0  0  0  0  0  0
  110.6190  114.2350   81.9130 C   0  0  0  0  0  0  0  0  0  0  0  0
  109.9840  113.5870   81.1510 O   0  0  0  0  0  0  0  0  0  0  0  0
  110.5950  115.7790   81.8250 C   0  0  0  0  0  0  0  0  0  0  0  0
  111.3220  116.5210   82.6970 C   0  0  0  0  0  0  0  0  0  0  0  0
  111.1270  117.8160   82.4060 N   0  0  0  0  0  0  0  0  0  0  0  0
  110.2830  117.8800   81.3580 C   0  0  0  0  0  0  0  0  0  0  0  0
  109.9560  116.6210   81.0000 N   0  0  0  0  0  0  0  0  0  0  0  0
  2  3  1  0  0  0  0
  3  4  1  0  0  0  0
  4  5  1  0  0  0  0
  5  6  1  0  0  0  0
  6  7  1  0  0  0  0
  7  8  1  0  0  0  0
  8  9  2  0  0  0  0
  8 10  1  0  0  0  0
 10 11  1  0  0  0  0
 11 12  2  0  0  0  0
 11 13  1  0  0  0  0
  7 14  1  0  0  0  0
 13 14  2  0  0  0  0
 14 15  1  0  0  0  0
  1 16  1  0  0  0  0
 15 16  2  0  0  0  0
 13 17  1  0  0  0  0
 16 17  1  0  0  0  0
M  END
$$$$
