8FTA
  PyMOL3.1          3D                             0

 19 21  0  0  0  0  0  0  0  0999 V2000
  -20.9060  -21.1200   13.8200 C   0  0  0  0  0  0  0  0  0  0  0  0
  -20.9370  -20.6110   12.5240 C   0  0  0  0  0  0  0  0  0  0  0  0
  -21.6020  -21.3130   11.5180 C   0  0  0  0  0  0  0  0  0  0  0  0
  -22.2290  -22.5180   11.8210 C   0  0  0  0  0  0  0  0  0  0  0  0
  -22.1950  -23.0280   13.1200 C   0  0  0  0  0  0  0  0  0  0  0  0
  -21.5280  -22.3420   14.1370 C   0  0  0  0  0  0  0  0  0  0  0  0
  -21.5710  -22.8870   15.4370 C   0  0  0  0  0  0  0  0  0  0  0  0
  -22.1100  -25.0760   14.4290 C   0  0  0  0  0  0  0  0  0  0  0  0
  -22.8250  -26.2530   14.7170 C   0  0  0  0  0  0  0  0  0  0  0  0
  -24.1780  -26.2200   15.0370 C   0  0  0  0  0  0  0  0  0  0  0  0
  -22.1590  -27.4750   14.6580 C   0  0  0  0  0  0  0  0  0  0  0  0
  -22.8350  -28.6640   14.9280 C   0  0  0  0  0  0  0  0  0  0  0  0
  -24.1840  -28.6240   15.2520 C   0  0  0  0  0  0  0  0  0  0  0  0
  -24.8500  -27.4080   15.3060 C   0  0  0  0  0  0  0  0  0  0  0  0
  -26.1900  -27.3850   15.6240 C   0  0  0  0  0  0  0  0  0  0  0  0
  -22.8140  -24.2460   13.4140 N   0  0  0  0  0  0  0  0  0  0  0  0
  -21.8760  -24.2420   15.6180 N   0  0  0  0  0  0  0  0  0  0  0  0
  -21.4780  -22.1750   16.4450 O   0  0  0  0  0  0  0  0  0  0  0  0
  -20.0260  -20.1950   15.0030 Cl  0  0  0  0  0  0  0  0  0  0  0  0
  1  2  2  0  0  0  0
  2  3  1  0  0  0  0
  3  4  2  0  0  0  0
  4  5  1  0  0  0  0
  1  6  1  0  0  0  0
  5  6  2  0  0  0  0
  6  7  1  0  0  0  0
  8  9  1  0  0  0  0
  9 10  1  0  0  0  0
  9 11  2  0  0  0  0
 11 12  1  0  0  0  0
 12 13  2  0  0  0  0
 10 14  2  0  0  0  0
 13 14  1  0  0  0  0
 14 15  1  0  0  0  0
  5 16  1  0  0  0  0
  8 16  1  0  0  0  0
  7 17  1  0  0  0  0
  8 17  1  0  0  0  0
  7 18  2  0  0  0  0
  1 19  1  0  0  0  0
M  END
$$$$
