8R7Q
  PyMOL3.1          3D                             0

576612  0  0  0  0  0  0  0  0999 V2000
  120.1370  132.0330   91.2410 N   0  0  0  0  0  0  0  0  0  0  0  0
  117.9850  133.5880   96.9810 C   0  0  0  0  0  0  0  0  0  0  0  0
  119.3090  133.2470   96.5840 O   0  0  0  0  0  0  0  0  0  0  0  0
  119.5740  132.9380   95.2740 C   0  0  0  0  0  0  0  0  0  0  0  0
  124.8080  133.5330   95.4000 N   0  0  0  0  0  0  0  0  0  0  0  0
  124.6110  131.1060   93.3480 O   0  0  0  0  0  0  0  0  0  0  0  0
  120.8400  132.6220   94.8490 C   0  0  0  0  0  0  0  0  0  0  0  0
  121.0840  132.3060   93.4880 C   0  0  0  0  0  0  0  0  0  0  0  0
  122.3720  131.9730   92.9780 C   0  0  0  0  0  0  0  0  0  0  0  0
  122.4830  131.6870   91.6440 C   0  0  0  0  0  0  0  0  0  0  0  0
  121.3450  131.7300   90.8230 C   0  0  0  0  0  0  0  0  0  0  0  0
  119.9950  132.3230   92.5700 C   0  0  0  0  0  0  0  0  0  0  0  0
  118.7050  132.6530   93.0480 C   0  0  0  0  0  0  0  0  0  0  0  0
  118.4980  132.9510   94.3550 C   0  0  0  0  0  0  0  0  0  0  0  0
  123.5950  131.9310   93.8870 C   0  0  0  0  0  0  0  0  0  0  0  0
  124.1200  133.3670   94.0960 C   0  0  0  0  0  0  0  0  0  0  0  0
  125.0260  133.8750   92.9510 C   0  0  0  0  0  0  0  0  0  0  0  0
  126.0620  134.8140   93.5620 C   0  0  0  0  0  0  0  0  0  0  0  0
  127.0340  133.9790   94.3880 C   0  0  0  0  0  0  0  0  0  0  0  0
  126.1940  133.0420   95.2740 C   0  0  0  0  0  0  0  0  0  0  0  0
  124.8690  134.9750   95.7150 C   0  0  0  0  0  0  0  0  0  0  0  0
  125.3360  135.8030   94.4890 C   0  0  0  0  0  0  0  0  0  0  0  0
  124.2220  136.5360   93.8040 C   0  0  0  0  0  0  0  0  0  0  0  0
  124.2710  137.0990   92.6440 C   0  0  0  0  0  0  0  0  0  0  0  0
  124.2880  130.3110   93.2230 H   0  0  0  0  0  0  0  0  0  0  0  0
  123.3250  131.5680   94.7650 H   0  0  0  0  0  0  0  0  0  0  0  0
  123.3290  133.9470   94.1200 H   0  0  0  0  0  0  0  0  0  0  0  0
  126.1840  132.1400   94.8830 H   0  0  0  0  0  0  0  0  0  0  0  0
  126.5980  132.9850   96.1690 H   0  0  0  0  0  0  0  0  0  0  0  0
  127.6200  133.4540   93.7940 H   0  0  0  0  0  0  0  0  0  0  0  0
  127.5950  134.5670   94.9470 H   0  0  0  0  0  0  0  0  0  0  0  0
  125.4890  135.1130   96.4600 H   0  0  0  0  0  0  0  0  0  0  0  0
  123.9830  135.2780   95.9990 H   0  0  0  0  0  0  0  0  0  0  0  0
  125.9940  136.4680   94.8020 H   0  0  0  0  0  0  0  0  0  0  0  0
  123.3980  136.5890   94.2750 H   0  0  0  0  0  0  0  0  0  0  0  0
  123.5090  137.5450   92.3010 H   0  0  0  0  0  0  0  0  0  0  0  0
  125.0670  137.0590   92.1310 H   0  0  0  0  0  0  0  0  0  0  0  0
  126.5410  135.3030   92.8550 H   0  0  0  0  0  0  0  0  0  0  0  0
  125.4720  133.1220   92.5100 H   0  0  0  0  0  0  0  0  0  0  0  0
  124.4920  134.3490   92.2800 H   0  0  0  0  0  0  0  0  0  0  0  0
  123.3210  131.4610   91.2770 H   0  0  0  0  0  0  0  0  0  0  0  0
  121.4530  131.5270   89.9030 H   0  0  0  0  0  0  0  0  0  0  0  0
  121.5560  132.6160   95.4680 H   0  0  0  0  0  0  0  0  0  0  0  0
  117.9760  132.6650   92.4450 H   0  0  0  0  0  0  0  0  0  0  0  0
  117.6260  133.1670   94.6470 H   0  0  0  0  0  0  0  0  0  0  0  0
  117.9740  133.7780   97.9330 H   0  0  0  0  0  0  0  0  0  0  0  0
  117.6920  134.3740   96.4930 H   0  0  0  0  0  0  0  0  0  0  0  0
  117.3890  132.8470   96.7940 H   0  0  0  0  0  0  0  0  0  0  0  0
  125.9910  121.7040   91.2700 N   0  0  0  0  0  0  0  0  0  0  0  0
  123.6410  120.6760   97.0510 C   0  0  0  0  0  0  0  0  0  0  0  0
  124.6030  121.6400   96.6340 O   0  0  0  0  0  0  0  0  0  0  0  0
  124.9840  121.7040   95.3180 C   0  0  0  0  0  0  0  0  0  0  0  0
  127.1750  126.5550   95.3490 N   0  0  0  0  0  0  0  0  0  0  0  0
  129.1010  125.0900   93.3140 O   0  0  0  0  0  0  0  0  0  0  0  0
  125.8940  122.6300   94.8750 C   0  0  0  0  0  0  0  0  0  0  0  0
  126.2700  122.6710   93.5070 C   0  0  0  0  0  0  0  0  0  0  0  0
  127.2060  123.6070   92.9790 C   0  0  0  0  0  0  0  0  0  0  0  0
  127.4890  123.5490   91.6410 C   0  0  0  0  0  0  0  0  0  0  0  0
  126.8610  122.5870   90.8340 C   0  0  0  0  0  0  0  0  0  0  0  0
  125.6890  121.7380   92.6030 C   0  0  0  0  0  0  0  0  0  0  0  0
  124.7550  120.7980   93.0990 C   0  0  0  0  0  0  0  0  0  0  0  0
  124.4120  120.7790   94.4120 C   0  0  0  0  0  0  0  0  0  0  0  0
  127.8780  124.6440   93.8710 C   0  0  0  0  0  0  0  0  0  0  0  0
  126.9160  125.8320   94.0790 C   0  0  0  0  0  0  0  0  0  0  0  0
  126.8900  126.8280   92.8980 C   0  0  0  0  0  0  0  0  0  0  0  0
  126.6310  128.2190   93.4710 C   0  0  0  0  0  0  0  0  0  0  0  0
  127.8760  128.6620   94.2300 C   0  0  0  0  0  0  0  0  0  0  0  0
  128.2940  127.4960   95.1440 C   0  0  0  0  0  0  0  0  0  0  0  0
  125.9770  127.3510   95.6850 C   0  0  0  0  0  0  0  0  0  0  0  0
  125.4490  128.1310   94.4530 C   0  0  0  0  0  0  0  0  0  0  0  0
  124.2250  127.5200   93.8400 C   0  0  0  0  0  0  0  0  0  0  0  0
  123.7330  127.7850   92.6770 C   0  0  0  0  0  0  0  0  0  0  0  0
  129.6160  124.4040   93.1910 H   0  0  0  0  0  0  0  0  0  0  0  0
  128.0620  124.2350   94.7510 H   0  0  0  0  0  0  0  0  0  0  0  0
  126.0170  125.4470   94.1550 H   0  0  0  0  0  0  0  0  0  0  0  0
  128.5820  127.8490   96.0160 H   0  0  0  0  0  0  0  0  0  0  0  0
  129.0510  127.0160   94.7410 H   0  0  0  0  0  0  0  0  0  0  0  0
  128.6000  128.8760   93.5960 H   0  0  0  0  0  0  0  0  0  0  0  0
  127.6780  129.4640   94.7680 H   0  0  0  0  0  0  0  0  0  0  0  0
  126.2020  127.9810   96.4000 H   0  0  0  0  0  0  0  0  0  0  0  0
  125.2790  126.7520   96.0200 H   0  0  0  0  0  0  0  0  0  0  0  0
  125.2230  129.0460   94.7430 H   0  0  0  0  0  0  0  0  0  0  0  0
  123.7670  126.8740   94.3640 H   0  0  0  0  0  0  0  0  0  0  0  0
  124.1590  128.4180   92.1140 H   0  0  0  0  0  0  0  0  0  0  0  0
  122.9450  127.3470   92.3840 H   0  0  0  0  0  0  0  0  0  0  0  0
  126.4220  128.8540   92.7490 H   0  0  0  0  0  0  0  0  0  0  0  0
  127.7460  126.8140   92.4220 H   0  0  0  0  0  0  0  0  0  0  0  0
  126.1830  126.5850   92.2640 H   0  0  0  0  0  0  0  0  0  0  0  0
  128.1050  124.1540   91.2610 H   0  0  0  0  0  0  0  0  0  0  0  0
  127.0770  122.5720   89.9110 H   0  0  0  0  0  0  0  0  0  0  0  0
  126.2730  123.2470   95.4840 H   0  0  0  0  0  0  0  0  0  0  0  0
  124.3650  120.1730   92.5060 H   0  0  0  0  0  0  0  0  0  0  0  0
  123.7860  120.1400   94.7170 H   0  0  0  0  0  0  0  0  0  0  0  0
  123.4860  120.7700   98.0050 H   0  0  0  0  0  0  0  0  0  0  0  0
  123.9750  119.7850   96.8650 H   0  0  0  0  0  0  0  0  0  0  0  0
  122.8080  120.8200   96.5730 H   0  0  0  0  0  0  0  0  0  0  0  0
  137.9430  121.5130   91.3720 N   0  0  0  0  0  0  0  0  0  0  0  0
  137.6250  118.9990   97.1680 C   0  0  0  0  0  0  0  0  0  0  0  0
  137.2740  120.3110   96.7390 O   0  0  0  0  0  0  0  0  0  0  0  0
  137.4170  120.6650   95.4220 C   0  0  0  0  0  0  0  0  0  0  0  0
  134.2970  124.9590   95.4010 N   0  0  0  0  0  0  0  0  0  0  0  0
  136.5740  125.9110   93.3950 O   0  0  0  0  0  0  0  0  0  0  0  0
  137.0720  121.9120   94.9690 C   0  0  0  0  0  0  0  0  0  0  0  0
  137.2310  122.2510   93.6010 C   0  0  0  0  0  0  0  0  0  0  0  0
  136.8920  123.5260   93.0630 C   0  0  0  0  0  0  0  0  0  0  0  0
  137.0900  123.7340   91.7250 C   0  0  0  0  0  0  0  0  0  0  0  0
  137.6150  122.7040   90.9270 C   0  0  0  0  0  0  0  0  0  0  0  0
  137.7550  121.2760   92.7060 C   0  0  0  0  0  0  0  0  0  0  0  0
  138.1010  120.0000   93.2110 C   0  0  0  0  0  0  0  0  0  0  0  0
  137.9380  119.7010   94.5250 C   0  0  0  0  0  0  0  0  0  0  0  0
  136.3230  124.6310   93.9450 C   0  0  0  0  0  0  0  0  0  0  0  0
  134.8060  124.4060   94.1210 C   0  0  0  0  0  0  0  0  0  0  0  0
  133.9550  124.9290   92.9420 C   0  0  0  0  0  0  0  0  0  0  0  0
  132.6160  125.3940   93.5090 C   0  0  0  0  0  0  0  0  0  0  0  0
  132.8540  126.6660   94.3120 C   0  0  0  0  0  0  0  0  0  0  0  0
  134.0580  126.4060   95.2340 C   0  0  0  0  0  0  0  0  0  0  0  0
  132.9970  124.3240   95.6970 C   0  0  0  0  0  0  0  0  0  0  0  0
  132.0780  124.3010   94.4480 C   0  0  0  0  0  0  0  0  0  0  0  0
  131.9950  122.9550   93.7920 C   0  0  0  0  0  0  0  0  0  0  0  0
  131.5390  122.7020   92.6110 C   0  0  0  0  0  0  0  0  0  0  0  0
  137.4300  126.0030   93.2920 H   0  0  0  0  0  0  0  0  0  0  0  0
  136.7500  124.5790   94.8350 H   0  0  0  0  0  0  0  0  0  0  0  0
  134.6760  123.4350   94.1660 H   0  0  0  0  0  0  0  0  0  0  0  0
  134.8630  126.8250   94.8520 H   0  0  0  0  0  0  0  0  0  0  0  0
  133.8920  126.8090   96.1160 H   0  0  0  0  0  0  0  0  0  0  0  0
  133.0440  127.4200   93.7050 H   0  0  0  0  0  0  0  0  0  0  0  0
  132.0550  126.8840   94.8470 H   0  0  0  0  0  0  0  0  0  0  0  0
  132.5560  124.8170   96.4190 H   0  0  0  0  0  0  0  0  0  0  0  0
  133.1520  123.4090   96.0090 H   0  0  0  0  0  0  0  0  0  0  0  0
  131.1690  124.5600   94.7310 H   0  0  0  0  0  0  0  0  0  0  0  0
  132.3090  122.2170   94.3000 H   0  0  0  0  0  0  0  0  0  0  0  0
  131.5240  121.8100   92.2900 H   0  0  0  0  0  0  0  0  0  0  0  0
  131.2280  123.4070   92.0610 H   0  0  0  0  0  0  0  0  0  0  0  0
  131.9750  125.5590   92.7810 H   0  0  0  0  0  0  0  0  0  0  0  0
  134.4100  125.6750   92.4990 H   0  0  0  0  0  0  0  0  0  0  0  0
  133.8170  124.2190   92.2820 H   0  0  0  0  0  0  0  0  0  0  0  0
  136.8760  124.5670   91.3380 H   0  0  0  0  0  0  0  0  0  0  0  0
  137.7410  122.8790   90.0040 H   0  0  0  0  0  0  0  0  0  0  0  0
  136.7230  122.5520   95.5730 H   0  0  0  0  0  0  0  0  0  0  0  0
  138.4500  119.3470   92.6240 H   0  0  0  0  0  0  0  0  0  0  0  0
  138.1770  118.8420   94.8370 H   0  0  0  0  0  0  0  0  0  0  0  0
  137.4600  118.9180   98.1210 H   0  0  0  0  0  0  0  0  0  0  0  0
  138.5640  118.8400   96.9890 H   0  0  0  0  0  0  0  0  0  0  0  0
  137.0860  118.3460   96.6910 H   0  0  0  0  0  0  0  0  0  0  0  0
  144.0020  131.9630   91.2140 N   0  0  0  0  0  0  0  0  0  0  0  0
  146.0030  130.4060   97.0080 C   0  0  0  0  0  0  0  0  0  0  0  0
  144.6960  130.7800   96.5830 O   0  0  0  0  0  0  0  0  0  0  0  0
  144.4640  131.0830   95.2650 C   0  0  0  0  0  0  0  0  0  0  0  0
  139.1060  130.6480   95.2070 N   0  0  0  0  0  0  0  0  0  0  0  0
  139.5380  133.0760   93.2460 O   0  0  0  0  0  0  0  0  0  0  0  0
  143.2160  131.4310   94.8140 C   0  0  0  0  0  0  0  0  0  0  0  0
  143.0060  131.7390   93.4460 C   0  0  0  0  0  0  0  0  0  0  0  0
  141.7380  132.1060   92.9090 C   0  0  0  0  0  0  0  0  0  0  0  0
  141.6600  132.3810   91.5700 C   0  0  0  0  0  0  0  0  0  0  0  0
  142.8110  132.2960   90.7700 C   0  0  0  0  0  0  0  0  0  0  0  0
  144.1100  131.6820   92.5490 C   0  0  0  0  0  0  0  0  0  0  0  0
  145.3820  131.3200   93.0530 C   0  0  0  0  0  0  0  0  0  0  0  0
  145.5560  131.0300   94.3670 C   0  0  0  0  0  0  0  0  0  0  0  0
  140.4990  132.1930   93.7920 C   0  0  0  0  0  0  0  0  0  0  0  0
  139.9010  130.7810   93.9610 C   0  0  0  0  0  0  0  0  0  0  0  0
  139.0690  130.3050   92.7490 C   0  0  0  0  0  0  0  0  0  0  0  0
  137.9540  129.4060   93.2780 C   0  0  0  0  0  0  0  0  0  0  0  0
  136.9510  130.2790   94.0230 C   0  0  0  0  0  0  0  0  0  0  0  0
  137.7520  131.1880   94.9710 C   0  0  0  0  0  0  0  0  0  0  0  0
  138.9650  129.2110   95.5180 C   0  0  0  0  0  0  0  0  0  0  0  0
  138.5690  128.3950   94.2600 C   0  0  0  0  0  0  0  0  0  0  0  0
  139.7080  127.6220   93.6660 C   0  0  0  0  0  0  0  0  0  0  0  0
  139.7150  127.0250   92.5220 C   0  0  0  0  0  0  0  0  0  0  0  0
  139.9020  133.8580   93.1550 H   0  0  0  0  0  0  0  0  0  0  0  0
  140.7660  132.5270   94.6830 H   0  0  0  0  0  0  0  0  0  0  0  0
  140.6630  130.1690   94.0500 H   0  0  0  0  0  0  0  0  0  0  0  0
  137.2810  131.2630   95.8320 H   0  0  0  0  0  0  0  0  0  0  0  0
  137.8260  132.0880   94.5820 H   0  0  0  0  0  0  0  0  0  0  0  0
  136.3260  129.7140   94.5360 H   0  0  0  0  0  0  0  0  0  0  0  0
  136.4340  130.8230   93.3830 H   0  0  0  0  0  0  0  0  0  0  0  0
  138.2830  129.0990   96.2110 H   0  0  0  0  0  0  0  0  0  0  0  0
  139.8140  128.8760   95.8740 H   0  0  0  0  0  0  0  0  0  0  0  0
  137.8650  127.7550   94.5200 H   0  0  0  0  0  0  0  0  0  0  0  0
  140.5010  127.5680   94.1860 H   0  0  0  0  0  0  0  0  0  0  0  0
  138.9470  127.0540   91.9670 H   0  0  0  0  0  0  0  0  0  0  0  0
  140.4880  126.5570   92.2360 H   0  0  0  0  0  0  0  0  0  0  0  0
  137.5160  128.9320   92.5360 H   0  0  0  0  0  0  0  0  0  0  0  0
  139.6350  129.8110   92.1210 H   0  0  0  0  0  0  0  0  0  0  0  0
  138.6870  131.0740   92.2770 H   0  0  0  0  0  0  0  0  0  0  0  0
  140.8360  132.6270   91.1850 H   0  0  0  0  0  0  0  0  0  0  0  0
  142.7260  132.4930   89.8470 H   0  0  0  0  0  0  0  0  0  0  0  0
  142.4890  131.4640   95.4200 H   0  0  0  0  0  0  0  0  0  0  0  0
  146.1210  131.2800   92.4630 H   0  0  0  0  0  0  0  0  0  0  0  0
  146.4160  130.7910   94.6770 H   0  0  0  0  0  0  0  0  0  0  0  0
  145.9900  130.2260   97.9620 H   0  0  0  0  0  0  0  0  0  0  0  0
  146.6230  131.1280   96.8250 H   0  0  0  0  0  0  0  0  0  0  0  0
  146.2820  129.6060   96.5340 H   0  0  0  0  0  0  0  0  0  0  0  0
  138.1580  142.5080   91.1700 N   0  0  0  0  0  0  0  0  0  0  0  0
  140.2950  143.2720   97.0700 C   0  0  0  0  0  0  0  0  0  0  0  0
  139.3270  142.3470   96.5830 O   0  0  0  0  0  0  0  0  0  0  0  0
  138.9950  142.3370   95.2520 C   0  0  0  0  0  0  0  0  0  0  0  0
  136.8430  137.6800   95.1220 N   0  0  0  0  0  0  0  0  0  0  0  0
  134.8790  139.1450   92.9310 O   0  0  0  0  0  0  0  0  0  0  0  0
  138.0790  141.4540   94.7390 C   0  0  0  0  0  0  0  0  0  0  0  0
  137.7590  141.4710   93.3570 C   0  0  0  0  0  0  0  0  0  0  0  0
  136.8200  140.5830   92.7560 C   0  0  0  0  0  0  0  0  0  0  0  0
  136.5950  140.6970   91.4110 C   0  0  0  0  0  0  0  0  0  0  0  0
  137.2840  141.6680   90.6660 C   0  0  0  0  0  0  0  0  0  0  0  0
  138.4030  142.4180   92.5120 C   0  0  0  0  0  0  0  0  0  0  0  0
  139.3410  143.3130   93.0780 C   0  0  0  0  0  0  0  0  0  0  0  0
  139.6300  143.2760   94.4030 C   0  0  0  0  0  0  0  0  0  0  0  0
  136.0790  139.5320   93.5750 C   0  0  0  0  0  0  0  0  0  0  0  0
  137.0110  138.3190   93.7900 C   0  0  0  0  0  0  0  0  0  0  0  0
  136.9260  137.2480   92.6790 C   0  0  0  0  0  0  0  0  0  0  0  0
  137.2690  135.9040   93.3160 C   0  0  0  0  0  0  0  0  0  0  0  0
  136.1000  135.4890   94.2020 C   0  0  0  0  0  0  0  0  0  0  0  0
  135.7400  136.6980   95.0840 C   0  0  0  0  0  0  0  0  0  0  0  0
  138.0810  136.9280   95.4100 C   0  0  0  0  0  0  0  0  0  0  0  0
  138.5240  136.0780   94.1900 C   0  0  0  0  0  0  0  0  0  0  0  0
  139.6820  136.6680   93.4430 C   0  0  0  0  0  0  0  0  0  0  0  0
  140.1060  136.3160   92.2770 C   0  0  0  0  0  0  0  0  0  0  0  0
  134.4330  138.6010   93.4360 H   0  0  0  0  0  0  0  0  0  0  0  0
  135.8570  139.9150   94.4590 H   0  0  0  0  0  0  0  0  0  0  0  0
  137.9240  138.6770   93.7700 H   0  0  0  0  0  0  0  0  0  0  0  0
  135.5530  136.3900   96.0000 H   0  0  0  0  0  0  0  0  0  0  0  0
  134.9320  137.1290   94.7370 H   0  0  0  0  0  0  0  0  0  0  0  0
  136.3570  134.7200   94.7630 H   0  0  0  0  0  0  0  0  0  0  0  0
  135.3290  135.2300   93.6450 H   0  0  0  0  0  0  0  0  0  0  0  0
  138.7910  137.5590   95.6470 H   0  0  0  0  0  0  0  0  0  0  0  0
  137.9280  136.3430   96.1800 H   0  0  0  0  0  0  0  0  0  0  0  0
  138.7930  135.1870   94.5190 H   0  0  0  0  0  0  0  0  0  0  0  0
  140.1500  137.3730   93.8760 H   0  0  0  0  0  0  0  0  0  0  0  0
  140.8540  136.7520   91.8920 H   0  0  0  0  0  0  0  0  0  0  0  0
  139.6650  135.6250   91.8010 H   0  0  0  0  0  0  0  0  0  0  0  0
  137.4340  135.2280   92.6210 H   0  0  0  0  0  0  0  0  0  0  0  0
  137.5580  137.4540   91.9590 H   0  0  0  0  0  0  0  0  0  0  0  0
  136.0240  137.2210   92.2990 H   0  0  0  0  0  0  0  0  0  0  0  0
  135.9800  140.1250   90.9830 H   0  0  0  0  0  0  0  0  0  0  0  0
  137.1060  141.7220   89.7360 H   0  0  0  0  0  0  0  0  0  0  0  0
  137.6590  140.8270   95.3110 H   0  0  0  0  0  0  0  0  0  0  0  0
  139.7720  143.9460   92.5240 H   0  0  0  0  0  0  0  0  0  0  0  0
  140.2600  143.8860   94.7560 H   0  0  0  0  0  0  0  0  0  0  0  0
  140.4120  143.1410   98.0250 H   0  0  0  0  0  0  0  0  0  0  0  0
  141.1410  143.1250   96.6180 H   0  0  0  0  0  0  0  0  0  0  0  0
  139.9890  144.1780   96.9050 H   0  0  0  0  0  0  0  0  0  0  0  0
  126.0850  142.3880   91.3570 N   0  0  0  0  0  0  0  0  0  0  0  0
  126.3700  145.0110   97.1050 C   0  0  0  0  0  0  0  0  0  0  0  0
  126.7420  143.6970   96.7000 O   0  0  0  0  0  0  0  0  0  0  0  0
  126.6030  143.3180   95.3900 C   0  0  0  0  0  0  0  0  0  0  0  0
  129.7810  139.0930   95.4600 N   0  0  0  0  0  0  0  0  0  0  0  0
  127.5380  138.0520   93.4530 O   0  0  0  0  0  0  0  0  0  0  0  0
  126.9690  142.0680   94.9590 C   0  0  0  0  0  0  0  0  0  0  0  0
  126.8130  141.7030   93.5970 C   0  0  0  0  0  0  0  0  0  0  0  0
  127.1750  140.4250   93.0810 C   0  0  0  0  0  0  0  0  0  0  0  0
  126.9770  140.1890   91.7470 C   0  0  0  0  0  0  0  0  0  0  0  0
  126.4330  141.1950   90.9320 C   0  0  0  0  0  0  0  0  0  0  0  0
  126.2710  142.6530   92.6860 C   0  0  0  0  0  0  0  0  0  0  0  0
  125.9040  143.9310   93.1690 C   0  0  0  0  0  0  0  0  0  0  0  0
  126.0630  144.2560   94.4770 C   0  0  0  0  0  0  0  0  0  0  0  0
  127.7630  139.3450   93.9820 C   0  0  0  0  0  0  0  0  0  0  0  0
  129.2760  139.5990   94.1600 C   0  0  0  0  0  0  0  0  0  0  0  0
  130.1430  139.0520   93.0040 C   0  0  0  0  0  0  0  0  0  0  0  0
  131.4720  138.5910   93.5960 C   0  0  0  0  0  0  0  0  0  0  0  0
  131.2170  137.3420   94.4330 C   0  0  0  0  0  0  0  0  0  0  0  0
  130.0170  137.6410   95.3490 C   0  0  0  0  0  0  0  0  0  0  0  0
  131.0790  139.7390   95.7440 C   0  0  0  0  0  0  0  0  0  0  0  0
  132.0160  139.7040   94.5080 C   0  0  0  0  0  0  0  0  0  0  0  0
  132.1340  141.0240   93.8090 C   0  0  0  0  0  0  0  0  0  0  0  0
  132.7100  141.2400   92.6750 C   0  0  0  0  0  0  0  0  0  0  0  0
  126.6840  137.9400   93.3480 H   0  0  0  0  0  0  0  0  0  0  0  0
  127.3320  139.4030   94.8690 H   0  0  0  0  0  0  0  0  0  0  0  0
  129.3910  140.5730   94.1750 H   0  0  0  0  0  0  0  0  0  0  0  0
  130.1880  137.2730   96.2460 H   0  0  0  0  0  0  0  0  0  0  0  0
  129.2110  137.2080   94.9890 H   0  0  0  0  0  0  0  0  0  0  0  0
  131.0160  136.5760   93.8450 H   0  0  0  0  0  0  0  0  0  0  0  0
  132.0140  137.1270   94.9720 H   0  0  0  0  0  0  0  0  0  0  0  0
  130.9220  140.6680   96.0110 H   0  0  0  0  0  0  0  0  0  0  0  0
  131.5080  139.2790   96.4940 H   0  0  0  0  0  0  0  0  0  0  0  0
  132.9150  139.4380   94.8130 H   0  0  0  0  0  0  0  0  0  0  0  0
  131.7460  141.7730   94.2460 H   0  0  0  0  0  0  0  0  0  0  0  0
  132.7400  142.1180   92.3180 H   0  0  0  0  0  0  0  0  0  0  0  0
  133.0970  140.5210   92.1950 H   0  0  0  0  0  0  0  0  0  0  0  0
  132.1180  138.3990   92.8790 H   0  0  0  0  0  0  0  0  0  0  0  0
  130.2940  139.7510   92.3340 H   0  0  0  0  0  0  0  0  0  0  0  0
  129.6910  138.3010   92.5660 H   0  0  0  0  0  0  0  0  0  0  0  0
  127.2050  139.3530   91.3750 H   0  0  0  0  0  0  0  0  0  0  0  0
  126.3080  141.0020   90.0120 H   0  0  0  0  0  0  0  0  0  0  0  0
  127.3300  141.4460   95.5730 H   0  0  0  0  0  0  0  0  0  0  0  0
  125.5420  144.5680   92.5700 H   0  0  0  0  0  0  0  0  0  0  0  0
  125.8100  145.1160   94.7740 H   0  0  0  0  0  0  0  0  0  0  0  0
  125.4290  145.1510   96.9240 H   0  0  0  0  0  0  0  0  0  0  0  0
  126.5330  145.1110   98.0570 H   0  0  0  0  0  0  0  0  0  0  0  0
  126.8980  145.6630   96.6170 H   0  0  0  0  0  0  0  0  0  0  0  0
  120.0710  131.9770  172.8610 N   0  0  0  0  0  0  0  0  0  0  0  0
  118.0300  130.4470  167.0750 C   0  0  0  0  0  0  0  0  0  0  0  0
  119.3440  130.7990  167.4960 O   0  0  0  0  0  0  0  0  0  0  0  0
  119.5850  131.1000  168.8120 C   0  0  0  0  0  0  0  0  0  0  0  0
  124.9300  130.5880  168.8460 N   0  0  0  0  0  0  0  0  0  0  0  0
  124.5520  133.0100  170.8250 O   0  0  0  0  0  0  0  0  0  0  0  0
  120.8390  131.4290  169.2590 C   0  0  0  0  0  0  0  0  0  0  0  0
  121.0570  131.7360  170.6270 C   0  0  0  0  0  0  0  0  0  0  0  0
  122.3320  132.0840  171.1610 C   0  0  0  0  0  0  0  0  0  0  0  0
  122.4180  132.3600  172.4990 C   0  0  0  0  0  0  0  0  0  0  0  0
  121.2670  132.2930  173.3010 C   0  0  0  0  0  0  0  0  0  0  0  0
  119.9550  131.6970  171.5270 C   0  0  0  0  0  0  0  0  0  0  0  0
  118.6770  131.3540  171.0270 C   0  0  0  0  0  0  0  0  0  0  0  0
  118.4940  131.0640  169.7140 C   0  0  0  0  0  0  0  0  0  0  0  0
  123.5710  132.1510  170.2750 C   0  0  0  0  0  0  0  0  0  0  0  0
  124.1400  130.7280  170.0940 C   0  0  0  0  0  0  0  0  0  0  0  0
  124.9640  130.2280  171.3030 C   0  0  0  0  0  0  0  0  0  0  0  0
  126.0610  129.3120  170.7660 C   0  0  0  0  0  0  0  0  0  0  0  0
  127.0790  130.1700  170.0250 C   0  0  0  0  0  0  0  0  0  0  0  0
  126.2940  131.1000  169.0830 C   0  0  0  0  0  0  0  0  0  0  0  0
  125.0420  129.1500  168.5260 C   0  0  0  0  0  0  0  0  0  0  0  0
  125.4260  128.3180  169.7780 C   0  0  0  0  0  0  0  0  0  0  0  0
  124.2750  127.5610  170.3680 C   0  0  0  0  0  0  0  0  0  0  0  0
  124.2460  126.9850  171.5220 C   0  0  0  0  0  0  0  0  0  0  0  0
  124.2030  133.7970  170.9320 H   0  0  0  0  0  0  0  0  0  0  0  0
  123.3090  132.4970  169.3870 H   0  0  0  0  0  0  0  0  0  0  0  0
  123.3650  130.1330  170.0040 H   0  0  0  0  0  0  0  0  0  0  0  0
  126.7660  131.1700  168.2220 H   0  0  0  0  0  0  0  0  0  0  0  0
  126.2390  131.9990  169.4770 H   0  0  0  0  0  0  0  0  0  0  0  0
  127.6930  129.5980  169.5080 H   0  0  0  0  0  0  0  0  0  0  0  0
  127.6070  130.7010  170.6680 H   0  0  0  0  0  0  0  0  0  0  0  0
  124.1870  128.8340  168.1710 H   0  0  0  0  0  0  0  0  0  0  0  0
  125.7210  129.0290  167.8310 H   0  0  0  0  0  0  0  0  0  0  0  0
  126.1180  127.6670  169.5130 H   0  0  0  0  0  0  0  0  0  0  0  0
  123.4890  127.5020  169.8370 H   0  0  0  0  0  0  0  0  0  0  0  0
  123.4670  126.5230  171.8030 H   0  0  0  0  0  0  0  0  0  0  0  0
  125.0020  127.0280  172.0930 H   0  0  0  0  0  0  0  0  0  0  0  0
  126.4910  128.8240  171.5050 H   0  0  0  0  0  0  0  0  0  0  0  0
  124.3890  129.7400  171.9280 H   0  0  0  0  0  0  0  0  0  0  0  0
  125.3610  130.9860  171.7800 H   0  0  0  0  0  0  0  0  0  0  0  0
  123.2470  132.5940  172.8820 H   0  0  0  0  0  0  0  0  0  0  0  0
  121.3580  132.4900  174.2240 H   0  0  0  0  0  0  0  0  0  0  0  0
  121.5650  131.4500  168.6520 H   0  0  0  0  0  0  0  0  0  0  0  0
  117.9390  131.3260  171.6180 H   0  0  0  0  0  0  0  0  0  0  0  0
  117.6300  130.8390  169.4060 H   0  0  0  0  0  0  0  0  0  0  0  0
  118.0360  130.2650  166.1210 H   0  0  0  0  0  0  0  0  0  0  0  0
  117.7370  129.6540  167.5520 H   0  0  0  0  0  0  0  0  0  0  0  0
  117.4230  131.1810  167.2590 H   0  0  0  0  0  0  0  0  0  0  0  0
  125.8570  142.4750  172.8840 N   0  0  0  0  0  0  0  0  0  0  0  0
  123.6560  143.3190  167.0160 C   0  0  0  0  0  0  0  0  0  0  0  0
  124.6280  142.3880  167.4810 O   0  0  0  0  0  0  0  0  0  0  0  0
  124.9720  142.3610  168.8090 C   0  0  0  0  0  0  0  0  0  0  0  0
  127.2640  137.5670  168.9460 N   0  0  0  0  0  0  0  0  0  0  0  0
  129.0930  139.1060  171.0190 O   0  0  0  0  0  0  0  0  0  0  0  0
  125.8880  141.4660  169.3000 C   0  0  0  0  0  0  0  0  0  0  0  0
  126.2240  141.4630  170.6790 C   0  0  0  0  0  0  0  0  0  0  0  0
  127.1620  140.5600  171.2570 C   0  0  0  0  0  0  0  0  0  0  0  0
  127.4040  140.6550  172.6010 C   0  0  0  0  0  0  0  0  0  0  0  0
  126.7310  141.6210  173.3660 C   0  0  0  0  0  0  0  0  0  0  0  0
  125.5960  142.4040  171.5430 C   0  0  0  0  0  0  0  0  0  0  0  0
  124.6580  143.3130  170.9980 C   0  0  0  0  0  0  0  0  0  0  0  0
  124.3540  143.2940  169.6760 C   0  0  0  0  0  0  0  0  0  0  0  0
  127.8830  139.5180  170.4100 C   0  0  0  0  0  0  0  0  0  0  0  0
  126.9490  138.3090  170.1920 C   0  0  0  0  0  0  0  0  0  0  0  0
  126.9000  137.3340  171.3910 C   0  0  0  0  0  0  0  0  0  0  0  0
  126.6820  135.9290  170.8360 C   0  0  0  0  0  0  0  0  0  0  0  0
  127.9590  135.4930  170.1270 C   0  0  0  0  0  0  0  0  0  0  0  0
  128.3890  136.6490  169.2080 C   0  0  0  0  0  0  0  0  0  0  0  0
  126.0910  136.7440  168.5850 C   0  0  0  0  0  0  0  0  0  0  0  0
  125.5330  135.9810  169.8140 C   0  0  0  0  0  0  0  0  0  0  0  0
  124.2800  136.5850  170.3740 C   0  0  0  0  0  0  0  0  0  0  0  0
  123.7440  136.3170  171.5170 C   0  0  0  0  0  0  0  0  0  0  0  0
  129.5910  139.8040  171.1490 H   0  0  0  0  0  0  0  0  0  0  0  0
  128.0910  139.9130  169.5280 H   0  0  0  0  0  0  0  0  0  0  0  0
  126.0470  138.6760  170.0790 H   0  0  0  0  0  0  0  0  0  0  0  0
  128.7150  136.2870  168.3530 H   0  0  0  0  0  0  0  0  0  0  0  0
  129.1240  137.1500  169.6290 H   0  0  0  0  0  0  0  0  0  0  0  0
  127.7910  134.6790  169.5970 H   0  0  0  0  0  0  0  0  0  0  0  0
  128.6650  135.3010  170.7880 H   0  0  0  0  0  0  0  0  0  0  0  0
  126.3510  136.1040  167.8910 H   0  0  0  0  0  0  0  0  0  0  0  0
  125.3950  137.3250  168.2140 H   0  0  0  0  0  0  0  0  0  0  0  0
  125.3300  135.0570  169.5350 H   0  0  0  0  0  0  0  0  0  0  0  0
  123.8410  137.2280  169.8310 H   0  0  0  0  0  0  0  0  0  0  0  0
  122.9430  136.7520  171.7780 H   0  0  0  0  0  0  0  0  0  0  0  0
  124.1530  135.6910  172.0990 H   0  0  0  0  0  0  0  0  0  0  0  0
  126.4590  135.3040  171.5630 H   0  0  0  0  0  0  0  0  0  0  0  0
  126.1700  137.5780  171.9970 H   0  0  0  0  0  0  0  0  0  0  0  0
  127.7400  137.3720  171.8940 H   0  0  0  0  0  0  0  0  0  0  0  0
  128.0200  140.0730  173.0130 H   0  0  0  0  0  0  0  0  0  0  0  0
  126.9200  141.6620  174.2940 H   0  0  0  0  0  0  0  0  0  0  0  0
  126.2970  140.8430  168.7160 H   0  0  0  0  0  0  0  0  0  0  0  0
  124.2370  143.9420  171.5650 H   0  0  0  0  0  0  0  0  0  0  0  0
  123.7250  143.9120  169.3380 H   0  0  0  0  0  0  0  0  0  0  0  0
  123.5300  143.2000  166.0610 H   0  0  0  0  0  0  0  0  0  0  0  0
  122.8140  143.1660  167.4740 H   0  0  0  0  0  0  0  0  0  0  0  0
  123.9630  144.2220  167.1900 H   0  0  0  0  0  0  0  0  0  0  0  0
  137.9930  142.5000  172.7580 N   0  0  0  0  0  0  0  0  0  0  0  0
  137.6490  144.9210  166.9250 C   0  0  0  0  0  0  0  0  0  0  0  0
  137.2740  143.6240  167.3800 O   0  0  0  0  0  0  0  0  0  0  0  0
  137.4280  143.2880  168.7010 C   0  0  0  0  0  0  0  0  0  0  0  0
  134.2200  138.9880  168.8770 N   0  0  0  0  0  0  0  0  0  0  0  0
  136.5270  138.0910  170.8320 O   0  0  0  0  0  0  0  0  0  0  0  0
  137.0680  142.0540  169.1790 C   0  0  0  0  0  0  0  0  0  0  0  0
  137.2410  141.7360  170.5510 C   0  0  0  0  0  0  0  0  0  0  0  0
  136.8880  140.4760  171.1160 C   0  0  0  0  0  0  0  0  0  0  0  0
  137.1010  140.2880  172.4540 C   0  0  0  0  0  0  0  0  0  0  0  0
  137.6520  141.3220  173.2280 C   0  0  0  0  0  0  0  0  0  0  0  0
  137.7920  142.7180  171.4220 C   0  0  0  0  0  0  0  0  0  0  0  0
  138.1510  143.9790  170.8910 C   0  0  0  0  0  0  0  0  0  0  0  0
  137.9760  144.2580  169.5750 C   0  0  0  0  0  0  0  0  0  0  0  0
  136.2890  139.3650  170.2620 C   0  0  0  0  0  0  0  0  0  0  0  0
  134.7730  139.6110  170.1060 C   0  0  0  0  0  0  0  0  0  0  0  0
  133.9420  139.1830  171.3360 C   0  0  0  0  0  0  0  0  0  0  0  0
  132.5790  138.7150  170.8330 C   0  0  0  0  0  0  0  0  0  0  0  0
  132.7690  137.3880  170.1080 C   0  0  0  0  0  0  0  0  0  0  0  0
  133.9550  137.5610  169.1420 C   0  0  0  0  0  0  0  0  0  0  0  0
  132.9270  139.6340  168.5710 C   0  0  0  0  0  0  0  0  0  0  0  0
  132.0400  139.7570  169.8380 C   0  0  0  0  0  0  0  0  0  0  0  0
  132.0020  141.1430  170.4080 C   0  0  0  0  0  0  0  0  0  0  0  0
  131.5770  141.4810  171.5790 C   0  0  0  0  0  0  0  0  0  0  0  0
  137.3830  137.9850  170.9260 H   0  0  0  0  0  0  0  0  0  0  0  0
  136.7030  139.3930  169.3650 H   0  0  0  0  0  0  0  0  0  0  0  0
  134.6630  140.5800  170.0020 H   0  0  0  0  0  0  0  0  0  0  0  0
  133.7560  137.1070  168.2920 H   0  0  0  0  0  0  0  0  0  0  0  0
  134.7590  137.1480  169.5290 H   0  0  0  0  0  0  0  0  0  0  0  0
  131.9520  137.1540  169.6080 H   0  0  0  0  0  0  0  0  0  0  0  0
  132.9590  136.6710  170.7570 H   0  0  0  0  0  0  0  0  0  0  0  0
  133.0940  140.5240  168.1990 H   0  0  0  0  0  0  0  0  0  0  0  0
  132.4580  139.1060  167.8930 H   0  0  0  0  0  0  0  0  0  0  0  0
  131.1200  139.5000  169.5940 H   0  0  0  0  0  0  0  0  0  0  0  0
  132.3230  141.8400  169.8490 H   0  0  0  0  0  0  0  0  0  0  0  0
  131.5880  142.3910  171.8430 H   0  0  0  0  0  0  0  0  0  0  0  0
  131.2600  140.8190  172.1780 H   0  0  0  0  0  0  0  0  0  0  0  0
  131.9530  138.6110  171.5850 H   0  0  0  0  0  0  0  0  0  0  0  0
  134.3920  138.4570  171.8150 H   0  0  0  0  0  0  0  0  0  0  0  0
  133.8350  139.9370  171.9530 H   0  0  0  0  0  0  0  0  0  0  0  0
  136.8780  139.4650  172.8580 H   0  0  0  0  0  0  0  0  0  0  0  0
  137.7880  141.1610  174.1520 H   0  0  0  0  0  0  0  0  0  0  0  0
  136.7010  141.4100  168.5910 H   0  0  0  0  0  0  0  0  0  0  0  0
  138.5190  144.6360  171.4630 H   0  0  0  0  0  0  0  0  0  0  0  0
  138.2250  145.1080  169.2460 H   0  0  0  0  0  0  0  0  0  0  0  0
  137.4720  144.9900  165.9730 H   0  0  0  0  0  0  0  0  0  0  0  0
  137.1320  145.5930  167.3990 H   0  0  0  0  0  0  0  0  0  0  0  0
  138.5940  145.0610  167.0880 H   0  0  0  0  0  0  0  0  0  0  0  0
  144.0640  132.0560  172.8090 N   0  0  0  0  0  0  0  0  0  0  0  0
  146.0050  133.5810  166.9870 C   0  0  0  0  0  0  0  0  0  0  0  0
  144.6990  133.2290  167.4310 O   0  0  0  0  0  0  0  0  0  0  0  0
  144.4800  132.9290  168.7520 C   0  0  0  0  0  0  0  0  0  0  0  0
  139.1350  133.4470  168.8840 N   0  0  0  0  0  0  0  0  0  0  0  0
  139.5530  131.0140  170.8480 O   0  0  0  0  0  0  0  0  0  0  0  0
  143.2340  132.6020  169.2210 C   0  0  0  0  0  0  0  0  0  0  0  0
  143.0390  132.2960  170.5930 C   0  0  0  0  0  0  0  0  0  0  0  0
  141.7730  131.9500  171.1490 C   0  0  0  0  0  0  0  0  0  0  0  0
  141.7110  131.6750  172.4880 C   0  0  0  0  0  0  0  0  0  0  0  0
  142.8760  131.7410  173.2710 C   0  0  0  0  0  0  0  0  0  0  0  0
  144.1570  132.3350  171.4730 C   0  0  0  0  0  0  0  0  0  0  0  0
  145.4270  132.6760  170.9500 C   0  0  0  0  0  0  0  0  0  0  0  0
  145.5860  132.9640  169.6340 C   0  0  0  0  0  0  0  0  0  0  0  0
  140.5190  131.8820  170.2850 C   0  0  0  0  0  0  0  0  0  0  0  0
  139.9380  133.3030  170.1230 C   0  0  0  0  0  0  0  0  0  0  0  0
  139.1220  133.7860  171.3440 C   0  0  0  0  0  0  0  0  0  0  0  0
  138.0050  134.6890  170.8260 C   0  0  0  0  0  0  0  0  0  0  0  0
  136.9920  133.8220  170.0880 C   0  0  0  0  0  0  0  0  0  0  0  0
  137.7800  132.9150  169.1260 C   0  0  0  0  0  0  0  0  0  0  0  0
  139.0020  134.8870  168.5790 C   0  0  0  0  0  0  0  0  0  0  0  0
  138.6140  135.7010  169.8400 C   0  0  0  0  0  0  0  0  0  0  0  0
  139.7560  136.4740  170.4270 C   0  0  0  0  0  0  0  0  0  0  0  0
  139.7710  137.0660  171.5740 C   0  0  0  0  0  0  0  0  0  0  0  0
  139.9100  130.2300  170.9470 H   0  0  0  0  0  0  0  0  0  0  0  0
  140.7670  131.5430  169.3910 H   0  0  0  0  0  0  0  0  0  0  0  0
  140.7070  133.9050  170.0300 H   0  0  0  0  0  0  0  0  0  0  0  0
  137.8510  132.0120  169.5080 H   0  0  0  0  0  0  0  0  0  0  0  0
  137.3010  132.8500  168.2690 H   0  0  0  0  0  0  0  0  0  0  0  0
  136.4820  133.2760  170.7320 H   0  0  0  0  0  0  0  0  0  0  0  0
  136.3630  134.3890  169.5850 H   0  0  0  0  0  0  0  0  0  0  0  0
  139.8520  135.2180  168.2220 H   0  0  0  0  0  0  0  0  0  0  0  0
  138.3190  135.0050  167.8880 H   0  0  0  0  0  0  0  0  0  0  0  0
  137.9080  136.3420  169.5850 H   0  0  0  0  0  0  0  0  0  0  0  0
  140.5440  136.5320  169.9010 H   0  0  0  0  0  0  0  0  0  0  0  0
  139.0090  137.0320  172.1360 H   0  0  0  0  0  0  0  0  0  0  0  0
  140.5460  137.5360  171.8550 H   0  0  0  0  0  0  0  0  0  0  0  0
  137.5750  135.1640  171.5730 H   0  0  0  0  0  0  0  0  0  0  0  0
  138.7420  133.0200  171.8220 H   0  0  0  0  0  0  0  0  0  0  0  0
  139.6980  134.2790  171.9640 H   0  0  0  0  0  0  0  0  0  0  0  0
  140.8890  131.4420  172.8860 H   0  0  0  0  0  0  0  0  0  0  0  0
  142.8010  131.5460  174.1950 H   0  0  0  0  0  0  0  0  0  0  0  0
  142.4980  132.5810  168.6260 H   0  0  0  0  0  0  0  0  0  0  0  0
  146.1750  132.7040  171.5290 H   0  0  0  0  0  0  0  0  0  0  0  0
  146.4450  133.1890  169.3110 H   0  0  0  0  0  0  0  0  0  0  0  0
  146.3070  134.3740  167.4600 H   0  0  0  0  0  0  0  0  0  0  0  0
  145.9820  133.7650  166.0340 H   0  0  0  0  0  0  0  0  0  0  0  0
  146.6150  132.8470  167.1580 H   0  0  0  0  0  0  0  0  0  0  0  0
  138.1240  121.5400  172.8470 N   0  0  0  0  0  0  0  0  0  0  0  0
  140.3350  120.6840  166.9850 C   0  0  0  0  0  0  0  0  0  0  0  0
  139.3790  121.6320  167.4510 O   0  0  0  0  0  0  0  0  0  0  0  0
  139.0290  121.6580  168.7770 C   0  0  0  0  0  0  0  0  0  0  0  0
  136.8260  126.4900  168.9310 N   0  0  0  0  0  0  0  0  0  0  0  0
  134.9510  124.9680  170.9810 O   0  0  0  0  0  0  0  0  0  0  0  0
  138.1270  122.5670  169.2680 C   0  0  0  0  0  0  0  0  0  0  0  0
  137.7850  122.5680  170.6450 C   0  0  0  0  0  0  0  0  0  0  0  0
  136.8590  123.4840  171.2240 C   0  0  0  0  0  0  0  0  0  0  0  0
  136.6100  123.3880  172.5660 C   0  0  0  0  0  0  0  0  0  0  0  0
  137.2630  122.4060  173.3300 C   0  0  0  0  0  0  0  0  0  0  0  0
  138.3930  121.6130  171.5080 C   0  0  0  0  0  0  0  0  0  0  0  0
  139.3180  120.6910  170.9630 C   0  0  0  0  0  0  0  0  0  0  0  0
  139.6280  120.7100  169.6420 C   0  0  0  0  0  0  0  0  0  0  0  0
  136.1600  124.5430  170.3790 C   0  0  0  0  0  0  0  0  0  0  0  0
  137.1130  125.7410  170.1800 C   0  0  0  0  0  0  0  0  0  0  0  0
  137.1560  126.7110  171.3820 C   0  0  0  0  0  0  0  0  0  0  0  0
  137.3970  128.1160  170.8350 C   0  0  0  0  0  0  0  0  0  0  0  0
  136.1350  128.5680  170.1090 C   0  0  0  0  0  0  0  0  0  0  0  0
  135.7060  127.4200  169.1790 C   0  0  0  0  0  0  0  0  0  0  0  0
  138.0130  127.3010  168.5900 C   0  0  0  0  0  0  0  0  0  0  0  0
  138.5600  128.0550  169.8300 C   0  0  0  0  0  0  0  0  0  0  0  0
  139.7980  127.4380  170.4080 C   0  0  0  0  0  0  0  0  0  0  0  0
  140.3250  127.7050  171.5550 C   0  0  0  0  0  0  0  0  0  0  0  0
  134.4430  124.2760  171.1030 H   0  0  0  0  0  0  0  0  0  0  0  0
  135.9550  124.1580  169.4930 H   0  0  0  0  0  0  0  0  0  0  0  0
  138.0120  125.3630  170.0780 H   0  0  0  0  0  0  0  0  0  0  0  0
  134.9600  126.9260  169.5860 H   0  0  0  0  0  0  0  0  0  0  0  0
  135.3980  127.7890  168.3200 H   0  0  0  0  0  0  0  0  0  0  0  0
  135.4220  128.7650  170.7600 H   0  0  0  0  0  0  0  0  0  0  0  0
  136.3190  129.3830  169.5850 H   0  0  0  0  0  0  0  0  0  0  0  0
  137.7710  127.9460  167.8950 H   0  0  0  0  0  0  0  0  0  0  0  0
  138.7080  126.7140  168.2290 H   0  0  0  0  0  0  0  0  0  0  0  0
  138.7760  128.9780  169.5570 H   0  0  0  0  0  0  0  0  0  0  0  0
  140.2350  126.7860  169.8730 H   0  0  0  0  0  0  0  0  0  0  0  0
  141.1170  127.2620  171.8280 H   0  0  0  0  0  0  0  0  0  0  0  0
  139.9180  128.3410  172.1280 H   0  0  0  0  0  0  0  0  0  0  0  0
  137.6150  128.7360  171.5670 H   0  0  0  0  0  0  0  0  0  0  0  0
  136.3090  126.6820  171.8730 H   0  0  0  0  0  0  0  0  0  0  0  0
  137.8760  126.4580  171.9970 H   0  0  0  0  0  0  0  0  0  0  0  0
  136.0020  123.9780  172.9790 H   0  0  0  0  0  0  0  0  0  0  0  0
  137.0690  122.3640  174.2570 H   0  0  0  0  0  0  0  0  0  0  0  0
  137.7310  123.1990  168.6860 H   0  0  0  0  0  0  0  0  0  0  0  0
  139.7250  120.0520  171.5290 H   0  0  0  0  0  0  0  0  0  0  0  0
  140.2480  120.0830  169.3040 H   0  0  0  0  0  0  0  0  0  0  0  0
  140.4690  120.8060  166.0310 H   0  0  0  0  0  0  0  0  0  0  0  0
  141.1770  120.8160  167.4480 H   0  0  0  0  0  0  0  0  0  0  0  0
  140.0080  119.7860  167.1520 H   0  0  0  0  0  0  0  0  0  0  0  0
  126.0540  121.5990  172.7920 N   0  0  0  0  0  0  0  0  0  0  0  0
  126.3390  119.1630  166.9640 C   0  0  0  0  0  0  0  0  0  0  0  0
  126.7250  120.4590  167.4110 O   0  0  0  0  0  0  0  0  0  0  0  0
  126.5830  120.7990  168.7330 C   0  0  0  0  0  0  0  0  0  0  0  0
  129.8090  125.1040  168.8770 N   0  0  0  0  0  0  0  0  0  0  0  0
  127.5280  125.9970  170.8490 O   0  0  0  0  0  0  0  0  0  0  0  0
  126.9520  122.0330  169.2050 C   0  0  0  0  0  0  0  0  0  0  0  0
  126.7920  122.3550  170.5770 C   0  0  0  0  0  0  0  0  0  0  0  0
  127.1550  123.6150  171.1360 C   0  0  0  0  0  0  0  0  0  0  0  0
  126.9530  123.8070  172.4760 C   0  0  0  0  0  0  0  0  0  0  0  0
  126.4030  122.7760  173.2560 C   0  0  0  0  0  0  0  0  0  0  0  0
  126.2430  121.3780  171.4550 C   0  0  0  0  0  0  0  0  0  0  0  0
  125.8750  120.1170  170.9300 C   0  0  0  0  0  0  0  0  0  0  0  0
  126.0380  119.8340  169.6130 C   0  0  0  0  0  0  0  0  0  0  0  0
  127.7510  124.7220  170.2760 C   0  0  0  0  0  0  0  0  0  0  0  0
  129.2630  124.4670  170.1020 C   0  0  0  0  0  0  0  0  0  0  0  0
  130.1090  124.8700  171.3300 C   0  0  0  0  0  0  0  0  0  0  0  0
  131.4700  125.3400  170.8210 C   0  0  0  0  0  0  0  0  0  0  0  0
  131.2790  126.6790  170.1190 C   0  0  0  0  0  0  0  0  0  0  0  0
  130.0860  126.5260  169.1590 C   0  0  0  0  0  0  0  0  0  0  0  0
  131.0950  124.4550  168.5500 C   0  0  0  0  0  0  0  0  0  0  0  0
  131.9930  124.3090  169.8060 C   0  0  0  0  0  0  0  0  0  0  0  0
  132.0320  122.9150  170.3550 C   0  0  0  0  0  0  0  0  0  0  0  0
  132.4740  122.5580  171.5140 C   0  0  0  0  0  0  0  0  0  0  0  0
  126.6740  126.1100  170.9530 H   0  0  0  0  0  0  0  0  0  0  0  0
  127.3260  124.6970  169.3840 H   0  0  0  0  0  0  0  0  0  0  0  0
  129.3660  123.4990  169.9830 H   0  0  0  0  0  0  0  0  0  0  0  0
  129.2880  126.9390  169.5570 H   0  0  0  0  0  0  0  0  0  0  0  0
  130.2820  126.9900  168.3130 H   0  0  0  0  0  0  0  0  0  0  0  0
  131.0980  127.3860  170.7810 H   0  0  0  0  0  0  0  0  0  0  0  0
  132.0940  126.9170  169.6170 H   0  0  0  0  0  0  0  0  0  0  0  0
  130.9190  123.5710  168.1670 H   0  0  0  0  0  0  0  0  0  0  0  0
  131.5600  124.9890  167.8740 H   0  0  0  0  0  0  0  0  0  0  0  0
  132.9120  124.5660  169.5560 H   0  0  0  0  0  0  0  0  0  0  0  0
  131.6960  122.2290  169.7910 H   0  0  0  0  0  0  0  0  0  0  0  0
  132.4610  121.6440  171.7650 H   0  0  0  0  0  0  0  0  0  0  0  0
  132.8040  123.2100  172.1170 H   0  0  0  0  0  0  0  0  0  0  0  0
  132.1030  125.4280  171.5690 H   0  0  0  0  0  0  0  0  0  0  0  0
  129.6670  125.5910  171.8250 H   0  0  0  0  0  0  0  0  0  0  0  0
  130.2180  124.1060  171.9340 H   0  0  0  0  0  0  0  0  0  0  0  0
  127.1820  124.6290  172.8770 H   0  0  0  0  0  0  0  0  0  0  0  0
  126.2750  122.9400  174.1810 H   0  0  0  0  0  0  0  0  0  0  0  0
  127.3170  122.6740  168.6120 H   0  0  0  0  0  0  0  0  0  0  0  0
  125.5090  119.4620  171.5070 H   0  0  0  0  0  0  0  0  0  0  0  0
  125.7830  118.9840  169.2880 H   0  0  0  0  0  0  0  0  0  0  0  0
  126.5080  119.0890  166.0100 H   0  0  0  0  0  0  0  0  0  0  0  0
  125.3940  119.0290  167.1340 H   0  0  0  0  0  0  0  0  0  0  0  0
  126.8540  118.4890  167.4350 H   0  0  0  0  0  0  0  0  0  0  0  0
  2  3  1  0  0  0  0
  3  4  1  0  0  0  0
  4  7  2  0  0  0  0
  7  8  1  0  0  0  0
  8  9  2  0  0  0  0
  9 10  1  0  0  0  0
  1 11  1  0  0  0  0
 10 11  2  0  0  0  0
  1 12  2  0  0  0  0
  8 12  1  0  0  0  0
 12 13  1  0  0  0  0
  4 14  1  0  0  0  0
 13 14  2  0  0  0  0
  6 15  1  0  0  0  0
  9 15  1  0  0  0  0
  5 16  1  0  0  0  0
 15 16  1  0  0  0  0
 16 17  1  0  0  0  0
 17 18  1  0  0  0  0
 18 19  1  0  0  0  0
  5 20  1  0  0  0  0
 19 20  1  0  0  0  0
  5 21  1  0  0  0  0
 18 22  1  0  0  0  0
 21 22  1  0  0  0  0
 22 23  1  0  0  0  0
 23 24  2  0  0  0  0
  6 25  1  0  0  0  0
 15 26  1  0  0  0  0
 16 27  1  0  0  0  0
 20 28  1  0  0  0  0
 20 29  1  0  0  0  0
 19 30  1  0  0  0  0
 19 31  1  0  0  0  0
 21 32  1  0  0  0  0
 21 33  1  0  0  0  0
 22 34  1  0  0  0  0
 23 35  1  0  0  0  0
 24 36  1  0  0  0  0
 24 37  1  0  0  0  0
 18 38  1  0  0  0  0
 17 39  1  0  0  0  0
 17 40  1  0  0  0  0
 10 41  1  0  0  0  0
 11 42  1  0  0  0  0
  7 43  1  0  0  0  0
 13 44  1  0  0  0  0
 14 45  1  0  0  0  0
  2 46  1  0  0  0  0
  2 47  1  0  0  0  0
  2 48  1  0  0  0  0
 50 51  1  0  0  0  0
 51 52  1  0  0  0  0
 52 55  2  0  0  0  0
 55 56  1  0  0  0  0
 56 57  2  0  0  0  0
 57 58  1  0  0  0  0
 49 59  1  0  0  0  0
 58 59  2  0  0  0  0
 49 60  2  0  0  0  0
 56 60  1  0  0  0  0
 60 61  1  0  0  0  0
 52 62  1  0  0  0  0
 61 62  2  0  0  0  0
 54 63  1  0  0  0  0
 57 63  1  0  0  0  0
 53 64  1  0  0  0  0
 63 64  1  0  0  0  0
 64 65  1  0  0  0  0
 65 66  1  0  0  0  0
 66 67  1  0  0  0  0
 53 68  1  0  0  0  0
 67 68  1  0  0  0  0
 53 69  1  0  0  0  0
 66 70  1  0  0  0  0
 69 70  1  0  0  0  0
 70 71  1  0  0  0  0
 71 72  2  0  0  0  0
 54 73  1  0  0  0  0
 63 74  1  0  0  0  0
 64 75  1  0  0  0  0
 68 76  1  0  0  0  0
 68 77  1  0  0  0  0
 67 78  1  0  0  0  0
 67 79  1  0  0  0  0
 69 80  1  0  0  0  0
 69 81  1  0  0  0  0
 70 82  1  0  0  0  0
 71 83  1  0  0  0  0
 72 84  1  0  0  0  0
 72 85  1  0  0  0  0
 66 86  1  0  0  0  0
 65 87  1  0  0  0  0
 65 88  1  0  0  0  0
 58 89  1  0  0  0  0
 59 90  1  0  0  0  0
 55 91  1  0  0  0  0
 61 92  1  0  0  0  0
 62 93  1  0  0  0  0
 50 94  1  0  0  0  0
 50 95  1  0  0  0  0
 50 96  1  0  0  0  0
 98 99  1  0  0  0  0
 99100  1  0  0  0  0
100103  2  0  0  0  0
103104  1  0  0  0  0
104105  2  0  0  0  0
105106  1  0  0  0  0
 97107  1  0  0  0  0
106107  2  0  0  0  0
 97108  2  0  0  0  0
104108  1  0  0  0  0
108109  1  0  0  0  0
100110  1  0  0  0  0
109110  2  0  0  0  0
102111  1  0  0  0  0
105111  1  0  0  0  0
101112  1  0  0  0  0
111112  1  0  0  0  0
112113  1  0  0  0  0
113114  1  0  0  0  0
114115  1  0  0  0  0
101116  1  0  0  0  0
115116  1  0  0  0  0
101117  1  0  0  0  0
114118  1  0  0  0  0
117118  1  0  0  0  0
118119  1  0  0  0  0
119120  2  0  0  0  0
102121  1  0  0  0  0
111122  1  0  0  0  0
112123  1  0  0  0  0
116124  1  0  0  0  0
116125  1  0  0  0  0
115126  1  0  0  0  0
115127  1  0  0  0  0
117128  1  0  0  0  0
117129  1  0  0  0  0
118130  1  0  0  0  0
119131  1  0  0  0  0
120132  1  0  0  0  0
120133  1  0  0  0  0
114134  1  0  0  0  0
113135  1  0  0  0  0
113136  1  0  0  0  0
106137  1  0  0  0  0
107138  1  0  0  0  0
103139  1  0  0  0  0
109140  1  0  0  0  0
110141  1  0  0  0  0
 98142  1  0  0  0  0
 98143  1  0  0  0  0
 98144  1  0  0  0  0
146147  1  0  0  0  0
147148  1  0  0  0  0
148151  2  0  0  0  0
151152  1  0  0  0  0
152153  2  0  0  0  0
153154  1  0  0  0  0
145155  1  0  0  0  0
154155  2  0  0  0  0
145156  2  0  0  0  0
152156  1  0  0  0  0
156157  1  0  0  0  0
148158  1  0  0  0  0
157158  2  0  0  0  0
150159  1  0  0  0  0
153159  1  0  0  0  0
149160  1  0  0  0  0
159160  1  0  0  0  0
160161  1  0  0  0  0
161162  1  0  0  0  0
162163  1  0  0  0  0
149164  1  0  0  0  0
163164  1  0  0  0  0
149165  1  0  0  0  0
162166  1  0  0  0  0
165166  1  0  0  0  0
166167  1  0  0  0  0
167168  2  0  0  0  0
150169  1  0  0  0  0
159170  1  0  0  0  0
160171  1  0  0  0  0
164172  1  0  0  0  0
164173  1  0  0  0  0
163174  1  0  0  0  0
163175  1  0  0  0  0
165176  1  0  0  0  0
165177  1  0  0  0  0
166178  1  0  0  0  0
167179  1  0  0  0  0
168180  1  0  0  0  0
168181  1  0  0  0  0
162182  1  0  0  0  0
161183  1  0  0  0  0
161184  1  0  0  0  0
154185  1  0  0  0  0
155186  1  0  0  0  0
151187  1  0  0  0  0
157188  1  0  0  0  0
158189  1  0  0  0  0
146190  1  0  0  0  0
146191  1  0  0  0  0
146192  1  0  0  0  0
194195  1  0  0  0  0
195196  1  0  0  0  0
196199  2  0  0  0  0
199200  1  0  0  0  0
200201  2  0  0  0  0
201202  1  0  0  0  0
193203  1  0  0  0  0
202203  2  0  0  0  0
193204  2  0  0  0  0
200204  1  0  0  0  0
204205  1  0  0  0  0
196206  1  0  0  0  0
205206  2  0  0  0  0
198207  1  0  0  0  0
201207  1  0  0  0  0
197208  1  0  0  0  0
207208  1  0  0  0  0
208209  1  0  0  0  0
209210  1  0  0  0  0
210211  1  0  0  0  0
197212  1  0  0  0  0
211212  1  0  0  0  0
197213  1  0  0  0  0
210214  1  0  0  0  0
213214  1  0  0  0  0
214215  1  0  0  0  0
215216  2  0  0  0  0
198217  1  0  0  0  0
207218  1  0  0  0  0
208219  1  0  0  0  0
212220  1  0  0  0  0
212221  1  0  0  0  0
211222  1  0  0  0  0
211223  1  0  0  0  0
213224  1  0  0  0  0
213225  1  0  0  0  0
214226  1  0  0  0  0
215227  1  0  0  0  0
216228  1  0  0  0  0
216229  1  0  0  0  0
210230  1  0  0  0  0
209231  1  0  0  0  0
209232  1  0  0  0  0
202233  1  0  0  0  0
203234  1  0  0  0  0
199235  1  0  0  0  0
205236  1  0  0  0  0
206237  1  0  0  0  0
194238  1  0  0  0  0
194239  1  0  0  0  0
194240  1  0  0  0  0
242243  1  0  0  0  0
243244  1  0  0  0  0
244247  2  0  0  0  0
247248  1  0  0  0  0
248249  2  0  0  0  0
249250  1  0  0  0  0
241251  1  0  0  0  0
250251  2  0  0  0  0
241252  2  0  0  0  0
248252  1  0  0  0  0
252253  1  0  0  0  0
244254  1  0  0  0  0
253254  2  0  0  0  0
246255  1  0  0  0  0
249255  1  0  0  0  0
245256  1  0  0  0  0
255256  1  0  0  0  0
256257  1  0  0  0  0
257258  1  0  0  0  0
258259  1  0  0  0  0
245260  1  0  0  0  0
259260  1  0  0  0  0
245261  1  0  0  0  0
258262  1  0  0  0  0
261262  1  0  0  0  0
262263  1  0  0  0  0
263264  2  0  0  0  0
246265  1  0  0  0  0
255266  1  0  0  0  0
256267  1  0  0  0  0
260268  1  0  0  0  0
260269  1  0  0  0  0
259270  1  0  0  0  0
259271  1  0  0  0  0
261272  1  0  0  0  0
261273  1  0  0  0  0
262274  1  0  0  0  0
263275  1  0  0  0  0
264276  1  0  0  0  0
264277  1  0  0  0  0
258278  1  0  0  0  0
257279  1  0  0  0  0
257280  1  0  0  0  0
250281  1  0  0  0  0
251282  1  0  0  0  0
247283  1  0  0  0  0
253284  1  0  0  0  0
254285  1  0  0  0  0
242286  1  0  0  0  0
242287  1  0  0  0  0
242288  1  0  0  0  0
290291  1  0  0  0  0
291292  1  0  0  0  0
292295  2  0  0  0  0
295296  1  0  0  0  0
296297  2  0  0  0  0
297298  1  0  0  0  0
289299  1  0  0  0  0
298299  2  0  0  0  0
289300  2  0  0  0  0
296300  1  0  0  0  0
300301  1  0  0  0  0
292302  1  0  0  0  0
301302  2  0  0  0  0
294303  1  0  0  0  0
297303  1  0  0  0  0
293304  1  0  0  0  0
303304  1  0  0  0  0
304305  1  0  0  0  0
305306  1  0  0  0  0
306307  1  0  0  0  0
293308  1  0  0  0  0
307308  1  0  0  0  0
293309  1  0  0  0  0
306310  1  0  0  0  0
309310  1  0  0  0  0
310311  1  0  0  0  0
311312  2  0  0  0  0
294313  1  0  0  0  0
303314  1  0  0  0  0
304315  1  0  0  0  0
308316  1  0  0  0  0
308317  1  0  0  0  0
307318  1  0  0  0  0
307319  1  0  0  0  0
309320  1  0  0  0  0
309321  1  0  0  0  0
310322  1  0  0  0  0
311323  1  0  0  0  0
312324  1  0  0  0  0
312325  1  0  0  0  0
306326  1  0  0  0  0
305327  1  0  0  0  0
305328  1  0  0  0  0
298329  1  0  0  0  0
299330  1  0  0  0  0
295331  1  0  0  0  0
301332  1  0  0  0  0
302333  1  0  0  0  0
290334  1  0  0  0  0
290335  1  0  0  0  0
290336  1  0  0  0  0
338339  1  0  0  0  0
339340  1  0  0  0  0
340343  2  0  0  0  0
343344  1  0  0  0  0
344345  2  0  0  0  0
345346  1  0  0  0  0
337347  1  0  0  0  0
346347  2  0  0  0  0
337348  2  0  0  0  0
344348  1  0  0  0  0
348349  1  0  0  0  0
340350  1  0  0  0  0
349350  2  0  0  0  0
342351  1  0  0  0  0
345351  1  0  0  0  0
341352  1  0  0  0  0
351352  1  0  0  0  0
352353  1  0  0  0  0
353354  1  0  0  0  0
354355  1  0  0  0  0
341356  1  0  0  0  0
355356  1  0  0  0  0
341357  1  0  0  0  0
354358  1  0  0  0  0
357358  1  0  0  0  0
358359  1  0  0  0  0
359360  2  0  0  0  0
342361  1  0  0  0  0
351362  1  0  0  0  0
352363  1  0  0  0  0
356364  1  0  0  0  0
356365  1  0  0  0  0
355366  1  0  0  0  0
355367  1  0  0  0  0
357368  1  0  0  0  0
357369  1  0  0  0  0
358370  1  0  0  0  0
359371  1  0  0  0  0
360372  1  0  0  0  0
360373  1  0  0  0  0
354374  1  0  0  0  0
353375  1  0  0  0  0
353376  1  0  0  0  0
346377  1  0  0  0  0
347378  1  0  0  0  0
343379  1  0  0  0  0
349380  1  0  0  0  0
350381  1  0  0  0  0
338382  1  0  0  0  0
338383  1  0  0  0  0
338384  1  0  0  0  0
386387  1  0  0  0  0
387388  1  0  0  0  0
388391  2  0  0  0  0
391392  1  0  0  0  0
392393  2  0  0  0  0
393394  1  0  0  0  0
385395  1  0  0  0  0
394395  2  0  0  0  0
385396  2  0  0  0  0
392396  1  0  0  0  0
396397  1  0  0  0  0
388398  1  0  0  0  0
397398  2  0  0  0  0
390399  1  0  0  0  0
393399  1  0  0  0  0
389400  1  0  0  0  0
399400  1  0  0  0  0
400401  1  0  0  0  0
401402  1  0  0  0  0
402403  1  0  0  0  0
389404  1  0  0  0  0
403404  1  0  0  0  0
389405  1  0  0  0  0
402406  1  0  0  0  0
405406  1  0  0  0  0
406407  1  0  0  0  0
407408  2  0  0  0  0
390409  1  0  0  0  0
399410  1  0  0  0  0
400411  1  0  0  0  0
404412  1  0  0  0  0
404413  1  0  0  0  0
403414  1  0  0  0  0
403415  1  0  0  0  0
405416  1  0  0  0  0
405417  1  0  0  0  0
406418  1  0  0  0  0
407419  1  0  0  0  0
408420  1  0  0  0  0
408421  1  0  0  0  0
402422  1  0  0  0  0
401423  1  0  0  0  0
401424  1  0  0  0  0
394425  1  0  0  0  0
395426  1  0  0  0  0
391427  1  0  0  0  0
397428  1  0  0  0  0
398429  1  0  0  0  0
386430  1  0  0  0  0
386431  1  0  0  0  0
386432  1  0  0  0  0
434435  1  0  0  0  0
435436  1  0  0  0  0
436439  2  0  0  0  0
439440  1  0  0  0  0
440441  2  0  0  0  0
441442  1  0  0  0  0
433443  1  0  0  0  0
442443  2  0  0  0  0
433444  2  0  0  0  0
440444  1  0  0  0  0
444445  1  0  0  0  0
436446  1  0  0  0  0
445446  2  0  0  0  0
438447  1  0  0  0  0
441447  1  0  0  0  0
437448  1  0  0  0  0
447448  1  0  0  0  0
448449  1  0  0  0  0
449450  1  0  0  0  0
450451  1  0  0  0  0
437452  1  0  0  0  0
451452  1  0  0  0  0
437453  1  0  0  0  0
450454  1  0  0  0  0
453454  1  0  0  0  0
454455  1  0  0  0  0
455456  2  0  0  0  0
438457  1  0  0  0  0
447458  1  0  0  0  0
448459  1  0  0  0  0
452460  1  0  0  0  0
452461  1  0  0  0  0
451462  1  0  0  0  0
451463  1  0  0  0  0
453464  1  0  0  0  0
453465  1  0  0  0  0
454466  1  0  0  0  0
455467  1  0  0  0  0
456468  1  0  0  0  0
456469  1  0  0  0  0
450470  1  0  0  0  0
449471  1  0  0  0  0
449472  1  0  0  0  0
442473  1  0  0  0  0
443474  1  0  0  0  0
439475  1  0  0  0  0
445476  1  0  0  0  0
446477  1  0  0  0  0
434478  1  0  0  0  0
434479  1  0  0  0  0
434480  1  0  0  0  0
482483  1  0  0  0  0
483484  1  0  0  0  0
484487  2  0  0  0  0
487488  1  0  0  0  0
488489  2  0  0  0  0
489490  1  0  0  0  0
481491  1  0  0  0  0
490491  2  0  0  0  0
481492  2  0  0  0  0
488492  1  0  0  0  0
492493  1  0  0  0  0
484494  1  0  0  0  0
493494  2  0  0  0  0
486495  1  0  0  0  0
489495  1  0  0  0  0
485496  1  0  0  0  0
495496  1  0  0  0  0
496497  1  0  0  0  0
497498  1  0  0  0  0
498499  1  0  0  0  0
485500  1  0  0  0  0
499500  1  0  0  0  0
485501  1  0  0  0  0
498502  1  0  0  0  0
501502  1  0  0  0  0
502503  1  0  0  0  0
503504  2  0  0  0  0
486505  1  0  0  0  0
495506  1  0  0  0  0
496507  1  0  0  0  0
500508  1  0  0  0  0
500509  1  0  0  0  0
499510  1  0  0  0  0
499511  1  0  0  0  0
501512  1  0  0  0  0
501513  1  0  0  0  0
502514  1  0  0  0  0
503515  1  0  0  0  0
504516  1  0  0  0  0
504517  1  0  0  0  0
498518  1  0  0  0  0
497519  1  0  0  0  0
497520  1  0  0  0  0
490521  1  0  0  0  0
491522  1  0  0  0  0
487523  1  0  0  0  0
493524  1  0  0  0  0
494525  1  0  0  0  0
482526  1  0  0  0  0
482527  1  0  0  0  0
482528  1  0  0  0  0
530531  1  0  0  0  0
531532  1  0  0  0  0
532535  2  0  0  0  0
535536  1  0  0  0  0
536537  2  0  0  0  0
537538  1  0  0  0  0
529539  1  0  0  0  0
538539  2  0  0  0  0
529540  2  0  0  0  0
536540  1  0  0  0  0
540541  1  0  0  0  0
532542  1  0  0  0  0
541542  2  0  0  0  0
534543  1  0  0  0  0
537543  1  0  0  0  0
533544  1  0  0  0  0
543544  1  0  0  0  0
544545  1  0  0  0  0
545546  1  0  0  0  0
546547  1  0  0  0  0
533548  1  0  0  0  0
547548  1  0  0  0  0
533549  1  0  0  0  0
546550  1  0  0  0  0
549550  1  0  0  0  0
550551  1  0  0  0  0
551552  2  0  0  0  0
534553  1  0  0  0  0
543554  1  0  0  0  0
544555  1  0  0  0  0
548556  1  0  0  0  0
548557  1  0  0  0  0
547558  1  0  0  0  0
547559  1  0  0  0  0
549560  1  0  0  0  0
549561  1  0  0  0  0
550562  1  0  0  0  0
551563  1  0  0  0  0
552564  1  0  0  0  0
552565  1  0  0  0  0
546566  1  0  0  0  0
545567  1  0  0  0  0
545568  1  0  0  0  0
538569  1  0  0  0  0
539570  1  0  0  0  0
535571  1  0  0  0  0
541572  1  0  0  0  0
542573  1  0  0  0  0
530574  1  0  0  0  0
530575  1  0  0  0  0
530576  1  0  0  0  0
M  END
$$$$
