9EMA
  PyMOL3.1          3D                             0

 40 43  0  0  0  0  0  0  0  0999 V2000
  106.8060  100.5040  120.1550 Cl  0  0  0  0  0  0  0  0  0  0  0  0
  116.6350   91.5720  122.1440 C   0  0  0  0  0  0  0  0  0  0  0  0
  116.5830   92.5860  121.1760 O   0  0  0  0  0  0  0  0  0  0  0  0
  115.4010   92.6100  120.4330 C   0  0  0  0  0  0  0  0  0  0  0  0
  115.7480   93.1980  119.0650 C   0  0  0  0  0  0  0  0  0  0  0  0
  115.5950   94.6710  118.5950 C   0  0  0  0  0  0  0  0  0  0  0  0
  115.0560   95.7770  119.3490 N   0  0  0  0  0  0  0  0  0  0  0  0
  115.7900   96.4820  120.3580 C   0  0  0  0  0  0  0  0  0  0  0  0
  115.1010   97.6290  121.0840 C   0  0  0  0  0  0  0  0  0  0  0  0
  114.3220   97.1660  122.3020 C   0  0  0  0  0  0  0  0  0  0  0  0
  113.9220   98.3820  123.1360 C   0  0  0  0  0  0  0  0  0  0  0  0
  115.2110   96.2610  123.1470 C   0  0  0  0  0  0  0  0  0  0  0  0
  113.0860   96.3630  121.8870 C   0  0  0  0  0  0  0  0  0  0  0  0
  112.3060   97.0360  120.8740 N   0  0  0  0  0  0  0  0  0  0  0  0
  111.2060   97.8920  121.2430 C   0  0  0  0  0  0  0  0  0  0  0  0
  110.3750   98.6010  120.1860 C   0  0  0  0  0  0  0  0  0  0  0  0
  110.8080   98.7200  118.8710 C   0  0  0  0  0  0  0  0  0  0  0  0
  112.0360   98.1830  118.4680 O   0  0  0  0  0  0  0  0  0  0  0  0
  112.4190   98.4830  117.1520 C   0  0  0  0  0  0  0  0  0  0  0  0
  113.2940   99.7300  117.1420 C   0  0  0  0  0  0  0  0  0  0  0  0
  110.0140   99.3800  117.9560 C   0  0  0  0  0  0  0  0  0  0  0  0
  108.8030   99.9160  118.3530 C   0  0  0  0  0  0  0  0  0  0  0  0
  108.3710   99.8030  119.6580 C   0  0  0  0  0  0  0  0  0  0  0  0
  109.1660   99.1520  120.5760 C   0  0  0  0  0  0  0  0  0  0  0  0
  110.9370   98.0500  122.3800 O   0  0  0  0  0  0  0  0  0  0  0  0
  116.9050   96.1740  120.6160 O   0  0  0  0  0  0  0  0  0  0  0  0
  116.1040   94.6800  117.1170 C   0  0  0  0  0  0  0  0  0  0  0  0
  116.5030   93.3190  116.8420 N   0  0  0  0  0  0  0  0  0  0  0  0
  116.3070   92.5060  117.9220 N   0  0  0  0  0  0  0  0  0  0  0  0
  116.5350   91.0610  118.1590 C   0  0  0  0  0  0  0  0  0  0  0  0
  117.9500   90.5690  117.9100 C   0  0  0  0  0  0  0  0  0  0  0  0
  118.7780   91.5180  117.0690 C   0  0  0  0  0  0  0  0  0  0  0  0
  117.0690   92.6720  115.6240 C   0  0  0  0  0  0  0  0  0  0  0  0
  118.1320   91.8190  115.7030 C   0  0  0  0  0  0  0  0  0  0  0  0
  118.6420   91.2180  114.5280 C   0  0  0  0  0  0  0  0  0  0  0  0
  118.0520   91.4980  113.3010 C   0  0  0  0  0  0  0  0  0  0  0  0
  116.9620   92.3710  113.2250 C   0  0  0  0  0  0  0  0  0  0  0  0
  116.4600   92.9630  114.3730 C   0  0  0  0  0  0  0  0  0  0  0  0
  116.1550   95.6050  116.3780 O   0  0  0  0  0  0  0  0  0  0  0  0
  108.0330  100.5560  117.4470 F   0  0  0  0  0  0  0  0  0  0  0  0
  2  3  1  0  0  0  0
  3  4  1  0  0  0  0
  4  5  1  0  0  0  0
  5  6  2  0  0  0  0
  6  7  1  0  0  0  0
  7  8  1  0  0  0  0
  8  9  1  0  0  0  0
  9 10  1  0  0  0  0
 10 11  1  0  0  0  0
 10 12  1  0  0  0  0
 10 13  1  0  0  0  0
 13 14  1  0  0  0  0
 14 15  1  0  0  0  0
 15 16  1  0  0  0  0
 16 17  2  0  0  0  0
 17 18  1  0  0  0  0
 18 19  1  0  0  0  0
 19 20  1  0  0  0  0
 17 21  1  0  0  0  0
 21 22  2  0  0  0  0
  1 23  1  0  0  0  0
 22 23  1  0  0  0  0
 16 24  1  0  0  0  0
 23 24  2  0  0  0  0
 15 25  2  0  0  0  0
  8 26  2  0  0  0  0
  6 27  1  0  0  0  0
 27 28  1  0  0  0  0
  5 29  1  0  0  0  0
 28 29  1  0  0  0  0
 29 30  1  0  0  0  0
 30 31  1  0  0  0  0
 31 32  1  0  0  0  0
 28 33  1  0  0  0  0
 32 34  1  0  0  0  0
 33 34  1  0  0  0  0
 34 35  2  0  0  0  0
 35 36  1  0  0  0  0
 36 37  2  0  0  0  0
 33 38  2  0  0  0  0
 37 38  1  0  0  0  0
 27 39  2  0  0  0  0
 22 40  1  0  0  0  0
M  END
$$$$
