7S1X
  PyMOL3.1          3D                             0

 50 52  0  0  0  0  0  0  0  0999 V2000
  155.7580  160.1630  146.6070 N   0  0  0  0  0  0  0  0  0  0  0  0
  156.8010  159.5410  147.3860 C   0  0  0  0  0  0  0  0  0  0  0  0
  156.5440  159.1820  148.6960 C   0  0  0  0  0  0  0  0  0  0  0  0
  155.3100  159.4170  149.2390 O   0  0  0  0  0  0  0  0  0  0  0  0
  158.0520  159.3000  146.8350 C   0  0  0  0  0  0  0  0  0  0  0  0
  159.0420  158.6980  147.5990 C   0  0  0  0  0  0  0  0  0  0  0  0
  158.7810  158.3410  148.9130 C   0  0  0  0  0  0  0  0  0  0  0  0
  157.0020  159.5330  152.0530 N   0  0  0  0  0  0  0  0  0  0  0  0
  154.9510  159.8240  144.2980 C   0  0  0  0  0  0  0  0  0  0  0  0
  154.2770  157.6770  143.2140 C   0  0  0  0  0  0  0  0  0  0  0  0
  157.5270  158.5780  149.4560 C   0  0  0  0  0  0  0  0  0  0  0  0
  155.9770  157.3550  151.1420 O   0  0  0  0  0  0  0  0  0  0  0  0
  157.1840  158.1280  151.1050 S   0  0  0  0  0  0  0  0  0  0  0  0
  158.2650  157.3410  151.6200 O   0  0  0  0  0  0  0  0  0  0  0  0
  160.5250  158.3790  145.7260 O   0  0  0  0  0  0  0  0  0  0  0  0
  161.3590  158.2880  147.7690 O   0  0  0  0  0  0  0  0  0  0  0  0
  155.9630  160.4950  145.2140 C   0  0  0  0  0  0  0  0  0  0  0  0
  155.2060  158.3280  144.2130 C   0  0  0  0  0  0  0  0  0  0  0  0
  154.9850  160.6800  149.6600 C   0  0  0  0  0  0  0  0  0  0  0  0
  153.6670  160.9940  149.9570 C   0  0  0  0  0  0  0  0  0  0  0  0
  153.3360  162.2730  150.3840 C   0  0  0  0  0  0  0  0  0  0  0  0
  154.3230  163.2390  150.5170 C   0  0  0  0  0  0  0  0  0  0  0  0
  155.6420  162.9260  150.2210 C   0  0  0  0  0  0  0  0  0  0  0  0
  155.9720  161.6470  149.7940 C   0  0  0  0  0  0  0  0  0  0  0  0
  160.3950  158.4370  147.0120 C   0  0  0  0  0  0  0  0  0  0  0  0
  115.6100  111.1900  146.6070 N   0  0  0  0  0  0  0  0  0  0  0  0
  114.5660  111.8120  147.3860 C   0  0  0  0  0  0  0  0  0  0  0  0
  114.8240  112.1710  148.6960 C   0  0  0  0  0  0  0  0  0  0  0  0
  116.0580  111.9360  149.2390 O   0  0  0  0  0  0  0  0  0  0  0  0
  113.3160  112.0530  146.8350 C   0  0  0  0  0  0  0  0  0  0  0  0
  112.3260  112.6550  147.5990 C   0  0  0  0  0  0  0  0  0  0  0  0
  112.5870  113.0120  148.9130 C   0  0  0  0  0  0  0  0  0  0  0  0
  114.3660  111.8210  152.0530 N   0  0  0  0  0  0  0  0  0  0  0  0
  116.4170  111.5290  144.2980 C   0  0  0  0  0  0  0  0  0  0  0  0
  117.0900  113.6760  143.2140 C   0  0  0  0  0  0  0  0  0  0  0  0
  113.8410  112.7750  149.4570 C   0  0  0  0  0  0  0  0  0  0  0  0
  115.3910  113.9990  151.1420 O   0  0  0  0  0  0  0  0  0  0  0  0
  114.1840  113.2250  151.1050 S   0  0  0  0  0  0  0  0  0  0  0  0
  113.1020  114.0120  151.6200 O   0  0  0  0  0  0  0  0  0  0  0  0
  110.8430  112.9740  145.7260 O   0  0  0  0  0  0  0  0  0  0  0  0
  110.0080  113.0650  147.7690 O   0  0  0  0  0  0  0  0  0  0  0  0
  115.4040  110.8590  145.2140 C   0  0  0  0  0  0  0  0  0  0  0  0
  116.1610  113.0250  144.2130 C   0  0  0  0  0  0  0  0  0  0  0  0
  116.3830  110.6730  149.6600 C   0  0  0  0  0  0  0  0  0  0  0  0
  117.7010  110.3600  149.9570 C   0  0  0  0  0  0  0  0  0  0  0  0
  118.0320  109.0800  150.3840 C   0  0  0  0  0  0  0  0  0  0  0  0
  117.0450  108.1140  150.5170 C   0  0  0  0  0  0  0  0  0  0  0  0
  115.7260  108.4270  150.2210 C   0  0  0  0  0  0  0  0  0  0  0  0
  115.3950  109.7060  149.7940 C   0  0  0  0  0  0  0  0  0  0  0  0
  110.9730  112.9160  147.0120 C   0  0  0  0  0  0  0  0  0  0  0  0
  1  2  1  0  0  0  0
  2  3  4  0  0  0  0
  2  5  4  0  0  0  0
  3  4  1  0  0  0  0
  3 11  4  0  0  0  0
  4 19  1  0  0  0  0
  5  6  4  0  0  0  0
  6  7  4  0  0  0  0
  7 11  4  0  0  0  0
  8 13  1  0  0  0  0
 11 13  1  0  0  0  0
 12 13  2  0  0  0  0
 13 14  2  0  0  0  0
  1 17  1  0  0  0  0
  9 17  1  0  0  0  0
  9 18  1  0  0  0  0
 10 18  1  0  0  0  0
 19 20  4  0  0  0  0
 19 24  4  0  0  0  0
 20 21  4  0  0  0  0
 21 22  4  0  0  0  0
 22 23  4  0  0  0  0
 23 24  4  0  0  0  0
  6 25  1  0  0  0  0
 15 25  4  0  0  0  0
 16 25  4  0  0  0  0
 26 27  1  0  0  0  0
 27 28  4  0  0  0  0
 27 30  4  0  0  0  0
 28 29  1  0  0  0  0
 28 36  4  0  0  0  0
 29 44  1  0  0  0  0
 30 31  4  0  0  0  0
 31 32  4  0  0  0  0
 32 36  4  0  0  0  0
 33 38  1  0  0  0  0
 36 38  1  0  0  0  0
 37 38  2  0  0  0  0
 38 39  2  0  0  0  0
 26 42  1  0  0  0  0
 34 42  1  0  0  0  0
 34 43  1  0  0  0  0
 35 43  1  0  0  0  0
 44 45  4  0  0  0  0
 44 49  4  0  0  0  0
 45 46  4  0  0  0  0
 46 47  4  0  0  0  0
 47 48  4  0  0  0  0
 48 49  4  0  0  0  0
 31 50  1  0  0  0  0
 40 50  4  0  0  0  0
 41 50  4  0  0  0  0
M  END
$$$$
