8TZ6
  PyMOL3.1          3D                             0

 31 32  0  0  0  0  0  0  0  0999 V2000
  156.5130  137.7550  135.9260 C   0  0  0  0  0  0  0  0  0  0  0  0
  155.6780  137.0660  137.0040 C   0  0  0  0  0  0  0  0  0  0  0  0
  156.2910  137.0580  138.0690 C   0  0  0  0  0  0  0  0  0  0  0  0
  155.1050  136.8310  139.2010 C   0  0  0  0  0  0  0  0  0  0  0  0
  154.1850  137.6390  138.8620 O   0  0  0  0  0  0  0  0  0  0  0  0
  154.3290  137.8150  137.3450 C   0  0  0  0  0  0  0  0  0  0  0  0
  154.3670  139.1130  137.0300 N   0  0  0  0  0  0  0  0  0  0  0  0
  154.7240  140.0780  138.0480 C   0  0  0  0  0  0  0  0  0  0  0  0
  154.7740  141.5340  137.7240 C   0  0  0  0  0  0  0  0  0  0  0  0
  154.4490  141.9950  136.3440 C   0  0  0  0  0  0  0  0  0  0  0  0
  154.4850  143.1500  136.0780 O   0  0  0  0  0  0  0  0  0  0  0  0
  154.0880  141.0320  135.3270 N   0  0  0  0  0  0  0  0  0  0  0  0
  154.0370  139.5820  135.6570 C   0  0  0  0  0  0  0  0  0  0  0  0
  153.7450  138.8020  134.8170 O   0  0  0  0  0  0  0  0  0  0  0  0
  155.6770  137.1480  140.5670 C   0  0  0  0  0  0  0  0  0  0  0  0
  155.8380  138.5360  140.6830 O   0  0  0  0  0  0  0  0  0  0  0  0
  157.2650  135.9490  138.1070 O   0  0  0  0  0  0  0  0  0  0  0  0
  155.3930  135.6720  136.5940 F   0  0  0  0  0  0  0  0  0  0  0  0
  155.9920  137.6970  134.9790 H   0  0  0  0  0  0  0  0  0  0  0  0
  157.4690  137.2550  135.8460 H   0  0  0  0  0  0  0  0  0  0  0  0
  156.6720  138.7920  136.1890 H   0  0  0  0  0  0  0  0  0  0  0  0
  156.7800  138.0070  138.2400 H   0  0  0  0  0  0  0  0  0  0  0  0
  154.7430  135.8100  139.1620 H   0  0  0  0  0  0  0  0  0  0  0  0
  153.5030  137.3370  136.8350 H   0  0  0  0  0  0  0  0  0  0  0  0
  154.9600  139.7470  139.0480 H   0  0  0  0  0  0  0  0  0  0  0  0
  155.0450  142.2480  138.4920 H   0  0  0  0  0  0  0  0  0  0  0  0
  153.8710  141.3470  134.4010 H   0  0  0  0  0  0  0  0  0  0  0  0
  155.0130  136.7940  141.3420 H   0  0  0  0  0  0  0  0  0  0  0  0
  156.6410  136.6680  140.6720 H   0  0  0  0  0  0  0  0  0  0  0  0
  155.0520  138.9050  141.0450 H   0  0  0  0  0  0  0  0  0  0  0  0
  157.0010  135.2820  137.4970 H   0  0  0  0  0  0  0  0  0  0  0  0
  1  2  1  0  0  0  0
  2  3  1  0  0  0  0
  3  4  1  0  0  0  0
  4  5  1  0  0  0  0
  2  6  1  0  0  0  0
  5  6  1  0  0  0  0
  6  7  1  0  0  0  0
  7  8  1  0  0  0  0
  8  9  2  0  0  0  0
  9 10  1  0  0  0  0
 10 11  2  0  0  0  0
 10 12  1  0  0  0  0
  7 13  1  0  0  0  0
 12 13  1  0  0  0  0
 13 14  2  0  0  0  0
  4 15  1  0  0  0  0
 15 16  1  0  0  0  0
  3 17  1  0  0  0  0
  2 18  1  0  0  0  0
  1 19  1  0  0  0  0
  1 20  1  0  0  0  0
  1 21  1  0  0  0  0
  3 22  1  0  0  0  0
  4 23  1  0  0  0  0
  6 24  1  0  0  0  0
  8 25  1  0  0  0  0
  9 26  1  0  0  0  0
 12 27  1  0  0  0  0
 15 28  1  0  0  0  0
 15 29  1  0  0  0  0
 16 30  1  0  0  0  0
 17 31  1  0  0  0  0
M  END
$$$$
