8GFA
  PyMOL3.1          3D                             0

136140  0  0  0  0  0  0  0  0999 V2000
  103.7220  126.5230   80.5640 Cl  0  0  0  0  0  0  0  0  0  0  0  0
   97.6420  126.8730   93.8710 C   0  0  0  0  0  0  0  0  0  0  0  0
   97.9890  126.8180   92.4980 O   0  0  0  0  0  0  0  0  0  0  0  0
   98.7470  125.7620   92.0810 C   0  0  0  0  0  0  0  0  0  0  0  0
   99.1110  124.6790   92.8580 C   0  0  0  0  0  0  0  0  0  0  0  0
   99.9470  123.7180   92.3250 C   0  0  0  0  0  0  0  0  0  0  0  0
  100.4170  123.8340   91.0320 C   0  0  0  0  0  0  0  0  0  0  0  0
  100.0470  124.9200   90.2610 C   0  0  0  0  0  0  0  0  0  0  0  0
  100.4960  125.1320   88.9500 N   0  0  0  0  0  0  0  0  0  0  0  0
  101.6700  124.8180   88.3900 C   0  0  0  0  0  0  0  0  0  0  0  0
  102.5810  124.2510   88.9950 O   0  0  0  0  0  0  0  0  0  0  0  0
  101.7710  125.2260   86.9780 C   0  0  0  0  0  0  0  0  0  0  0  0
  102.8730  125.0820   86.2870 C   0  0  0  0  0  0  0  0  0  0  0  0
  103.0700  125.4500   84.8930 C   0  0  0  0  0  0  0  0  0  0  0  0
  104.3040  125.2640   84.2870 C   0  0  0  0  0  0  0  0  0  0  0  0
  104.5100  125.5970   82.9630 C   0  0  0  0  0  0  0  0  0  0  0  0
  103.4740  126.1230   82.2370 C   0  0  0  0  0  0  0  0  0  0  0  0
  102.2410  126.3220   82.8010 C   0  0  0  0  0  0  0  0  0  0  0  0
  102.0440  125.9850   84.1240 C   0  0  0  0  0  0  0  0  0  0  0  0
   99.2080  125.8890   90.7870 C   0  0  0  0  0  0  0  0  0  0  0  0
  100.9580  125.6210   86.6320 H   0  0  0  0  0  0  0  0  0  0  0  0
  103.6610  124.7060   86.7130 H   0  0  0  0  0  0  0  0  0  0  0  0
  101.5090  126.7090   82.2910 H   0  0  0  0  0  0  0  0  0  0  0  0
  101.1620  126.1160   84.5070 H   0  0  0  0  0  0  0  0  0  0  0  0
   98.9360  126.6710   90.2740 H   0  0  0  0  0  0  0  0  0  0  0  0
   98.4330  126.9180   94.4390 H   0  0  0  0  0  0  0  0  0  0  0  0
   97.0740  126.1230   94.1260 H   0  0  0  0  0  0  0  0  0  0  0  0
   97.1380  127.6960   93.9980 H   0  0  0  0  0  0  0  0  0  0  0  0
  105.0420  124.9040   84.8070 H   0  0  0  0  0  0  0  0  0  0  0  0
  105.3860  125.4640   82.5600 H   0  0  0  0  0  0  0  0  0  0  0  0
   98.8090  124.5600   93.7760 H   0  0  0  0  0  0  0  0  0  0  0  0
  100.1960  122.9490   92.8640 H   0  0  0  0  0  0  0  0  0  0  0  0
  101.0230  123.1600   90.6850 H   0  0  0  0  0  0  0  0  0  0  0  0
   99.9210  125.5400   88.4420 H   0  0  0  0  0  0  0  0  0  0  0  0
  102.6810   79.9020   80.5940 Cl  0  0  0  0  0  0  0  0  0  0  0  0
  108.7520   79.5530   93.9010 C   0  0  0  0  0  0  0  0  0  0  0  0
  108.4070   79.6080   92.5280 O   0  0  0  0  0  0  0  0  0  0  0  0
  107.6490   80.6640   92.1110 C   0  0  0  0  0  0  0  0  0  0  0  0
  107.2810   81.7470   92.8880 C   0  0  0  0  0  0  0  0  0  0  0  0
  106.4440   82.7060   92.3530 C   0  0  0  0  0  0  0  0  0  0  0  0
  105.9770   82.5890   91.0590 C   0  0  0  0  0  0  0  0  0  0  0  0
  106.3500   81.5040   90.2890 C   0  0  0  0  0  0  0  0  0  0  0  0
  105.9010   81.2890   88.9790 N   0  0  0  0  0  0  0  0  0  0  0  0
  104.7250   81.6000   88.4210 C   0  0  0  0  0  0  0  0  0  0  0  0
  103.8140   82.1660   89.0260 O   0  0  0  0  0  0  0  0  0  0  0  0
  104.6240   81.1910   87.0090 C   0  0  0  0  0  0  0  0  0  0  0  0
  103.5200   81.3330   86.3200 C   0  0  0  0  0  0  0  0  0  0  0  0
  103.3230   80.9650   84.9270 C   0  0  0  0  0  0  0  0  0  0  0  0
  102.0880   81.1460   84.3200 C   0  0  0  0  0  0  0  0  0  0  0  0
  101.8840   80.8130   82.9960 C   0  0  0  0  0  0  0  0  0  0  0  0
  102.9240   80.2930   82.2700 C   0  0  0  0  0  0  0  0  0  0  0  0
  104.1580   80.0990   82.8340 C   0  0  0  0  0  0  0  0  0  0  0  0
  104.3520   80.4360   84.1570 C   0  0  0  0  0  0  0  0  0  0  0  0
  107.1910   80.5360   90.8160 C   0  0  0  0  0  0  0  0  0  0  0  0
  105.4370   80.7980   86.6630 H   0  0  0  0  0  0  0  0  0  0  0  0
  102.7310   81.7070   86.7470 H   0  0  0  0  0  0  0  0  0  0  0  0
  104.8920   79.7150   82.3250 H   0  0  0  0  0  0  0  0  0  0  0  0
  105.2340   80.3070   84.5420 H   0  0  0  0  0  0  0  0  0  0  0  0
  107.4670   79.7560   90.3030 H   0  0  0  0  0  0  0  0  0  0  0  0
  107.9600   79.5110   94.4690 H   0  0  0  0  0  0  0  0  0  0  0  0
  109.3220   80.3010   94.1560 H   0  0  0  0  0  0  0  0  0  0  0  0
  109.2520   78.7280   94.0290 H   0  0  0  0  0  0  0  0  0  0  0  0
  101.3480   81.5020   84.8400 H   0  0  0  0  0  0  0  0  0  0  0  0
  101.0080   80.9410   82.5930 H   0  0  0  0  0  0  0  0  0  0  0  0
  107.5810   81.8660   93.8060 H   0  0  0  0  0  0  0  0  0  0  0  0
  106.1920   83.4750   92.8910 H   0  0  0  0  0  0  0  0  0  0  0  0
  105.3700   83.2620   90.7110 H   0  0  0  0  0  0  0  0  0  0  0  0
  106.4760   80.8810   88.4710 H   0  0  0  0  0  0  0  0  0  0  0  0
   79.8660  103.7090   80.5630 Cl  0  0  0  0  0  0  0  0  0  0  0  0
   79.5260   97.6400   93.8760 C   0  0  0  0  0  0  0  0  0  0  0  0
   79.5790   97.9860   92.5030 O   0  0  0  0  0  0  0  0  0  0  0  0
   80.6350   98.7430   92.0850 C   0  0  0  0  0  0  0  0  0  0  0  0
   81.7190   99.1090   92.8610 C   0  0  0  0  0  0  0  0  0  0  0  0
   82.6790   99.9450   92.3260 C   0  0  0  0  0  0  0  0  0  0  0  0
   82.5610  100.4130   91.0320 C   0  0  0  0  0  0  0  0  0  0  0  0
   81.4750  100.0420   90.2630 C   0  0  0  0  0  0  0  0  0  0  0  0
   81.2620  100.4890   88.9520 N   0  0  0  0  0  0  0  0  0  0  0  0
   81.5760  101.6630   88.3900 C   0  0  0  0  0  0  0  0  0  0  0  0
   82.1430  102.5750   88.9930 O   0  0  0  0  0  0  0  0  0  0  0  0
   81.1680  101.7610   86.9780 C   0  0  0  0  0  0  0  0  0  0  0  0
   81.3140  102.8620   86.2840 C   0  0  0  0  0  0  0  0  0  0  0  0
   80.9450  103.0570   84.8900 C   0  0  0  0  0  0  0  0  0  0  0  0
   81.1290  104.2920   84.2840 C   0  0  0  0  0  0  0  0  0  0  0  0
   80.7950  104.4980   82.9610 C   0  0  0  0  0  0  0  0  0  0  0  0
   80.2690  103.4610   82.2350 C   0  0  0  0  0  0  0  0  0  0  0  0
   80.0710  102.2280   82.7980 C   0  0  0  0  0  0  0  0  0  0  0  0
   80.4100  102.0310   84.1210 C   0  0  0  0  0  0  0  0  0  0  0  0
   80.5070   99.2030   90.7900 C   0  0  0  0  0  0  0  0  0  0  0  0
   80.7720  100.9480   86.6330 H   0  0  0  0  0  0  0  0  0  0  0  0
   81.6920  103.6500   86.7080 H   0  0  0  0  0  0  0  0  0  0  0  0
   79.6870  101.4940   82.2880 H   0  0  0  0  0  0  0  0  0  0  0  0
   80.2820  101.1480   84.5040 H   0  0  0  0  0  0  0  0  0  0  0  0
   79.7250   98.9300   90.2790 H   0  0  0  0  0  0  0  0  0  0  0  0
   79.4800   98.4320   94.4440 H   0  0  0  0  0  0  0  0  0  0  0  0
   80.2760   97.0730   94.1320 H   0  0  0  0  0  0  0  0  0  0  0  0
   78.7030   97.1360   94.0040 H   0  0  0  0  0  0  0  0  0  0  0  0
   81.4900  105.0300   84.8030 H   0  0  0  0  0  0  0  0  0  0  0  0
   80.9270  105.3740   82.5570 H   0  0  0  0  0  0  0  0  0  0  0  0
   81.8380   98.8080   93.7790 H   0  0  0  0  0  0  0  0  0  0  0  0
   83.4480  100.1940   92.8640 H   0  0  0  0  0  0  0  0  0  0  0  0
   83.2360  101.0200   90.6840 H   0  0  0  0  0  0  0  0  0  0  0  0
   80.8550   99.9130   88.4440 H   0  0  0  0  0  0  0  0  0  0  0  0
  126.5320  102.6920   80.5840 Cl  0  0  0  0  0  0  0  0  0  0  0  0
  126.8740  108.7630   93.8960 C   0  0  0  0  0  0  0  0  0  0  0  0
  126.8190  108.4210   92.5230 O   0  0  0  0  0  0  0  0  0  0  0  0
  125.7620  107.6630   92.1040 C   0  0  0  0  0  0  0  0  0  0  0  0
  124.6790  107.2960   92.8810 C   0  0  0  0  0  0  0  0  0  0  0  0
  123.7190  106.4600   92.3450 C   0  0  0  0  0  0  0  0  0  0  0  0
  123.8360  105.9930   91.0510 C   0  0  0  0  0  0  0  0  0  0  0  0
  124.9220  106.3660   90.2810 C   0  0  0  0  0  0  0  0  0  0  0  0
  125.1340  105.9190   88.9700 N   0  0  0  0  0  0  0  0  0  0  0  0
  124.8200  104.7440   88.4090 C   0  0  0  0  0  0  0  0  0  0  0  0
  124.2530  103.8330   89.0120 O   0  0  0  0  0  0  0  0  0  0  0  0
  125.2290  104.6450   86.9970 C   0  0  0  0  0  0  0  0  0  0  0  0
  125.0830  103.5440   86.3040 C   0  0  0  0  0  0  0  0  0  0  0  0
  125.4510  103.3470   84.9110 C   0  0  0  0  0  0  0  0  0  0  0  0
  125.2640  102.1130   84.3040 C   0  0  0  0  0  0  0  0  0  0  0  0
  125.5980  101.9060   82.9810 C   0  0  0  0  0  0  0  0  0  0  0  0
  126.1260  102.9420   82.2550 C   0  0  0  0  0  0  0  0  0  0  0  0
  126.3270  104.1750   82.8190 C   0  0  0  0  0  0  0  0  0  0  0  0
  125.9880  104.3720   84.1410 C   0  0  0  0  0  0  0  0  0  0  0  0
  125.8900  107.2050   90.8090 C   0  0  0  0  0  0  0  0  0  0  0  0
  125.6240  105.4580   86.6510 H   0  0  0  0  0  0  0  0  0  0  0  0
  124.7060  102.7560   86.7300 H   0  0  0  0  0  0  0  0  0  0  0  0
  126.7130  104.9070   82.3090 H   0  0  0  0  0  0  0  0  0  0  0  0
  126.1200  105.2540   84.5250 H   0  0  0  0  0  0  0  0  0  0  0  0
  126.6710  107.4790   90.2970 H   0  0  0  0  0  0  0  0  0  0  0  0
  126.9210  107.9700   94.4620 H   0  0  0  0  0  0  0  0  0  0  0  0
  126.1240  109.3290   94.1550 H   0  0  0  0  0  0  0  0  0  0  0  0
  127.6970  109.2670   94.0240 H   0  0  0  0  0  0  0  0  0  0  0  0
  124.9030  101.3750   84.8240 H   0  0  0  0  0  0  0  0  0  0  0  0
  125.4650  101.0300   82.5770 H   0  0  0  0  0  0  0  0  0  0  0  0
  124.5610  107.5960   93.7990 H   0  0  0  0  0  0  0  0  0  0  0  0
  122.9500  106.2110   92.8840 H   0  0  0  0  0  0  0  0  0  0  0  0
  123.1620  105.3870   90.7040 H   0  0  0  0  0  0  0  0  0  0  0  0
  125.5420  106.4940   88.4620 H   0  0  0  0  0  0  0  0  0  0  0  0
  2  3  1  0  0  0  0
  3  4  1  0  0  0  0
  4  5  2  0  0  0  0
  5  6  1  0  0  0  0
  6  7  2  0  0  0  0
  7  8  1  0  0  0  0
  8  9  1  0  0  0  0
  9 10  1  0  0  0  0
 10 11  2  0  0  0  0
 10 12  1  0  0  0  0
 12 13  2  0  0  0  0
 13 14  1  0  0  0  0
 14 15  1  0  0  0  0
 15 16  2  0  0  0  0
  1 17  1  0  0  0  0
 16 17  1  0  0  0  0
 17 18  2  0  0  0  0
 14 19  2  0  0  0  0
 18 19  1  0  0  0  0
  4 20  1  0  0  0  0
  8 20  2  0  0  0  0
 12 21  1  0  0  0  0
 13 22  1  0  0  0  0
 18 23  1  0  0  0  0
 19 24  1  0  0  0  0
 20 25  1  0  0  0  0
  2 26  1  0  0  0  0
  2 27  1  0  0  0  0
  2 28  1  0  0  0  0
 15 29  1  0  0  0  0
 16 30  1  0  0  0  0
  5 31  1  0  0  0  0
  6 32  1  0  0  0  0
  7 33  1  0  0  0  0
  9 34  1  0  0  0  0
 36 37  1  0  0  0  0
 37 38  1  0  0  0  0
 38 39  2  0  0  0  0
 39 40  1  0  0  0  0
 40 41  2  0  0  0  0
 41 42  1  0  0  0  0
 42 43  1  0  0  0  0
 43 44  1  0  0  0  0
 44 45  2  0  0  0  0
 44 46  1  0  0  0  0
 46 47  2  0  0  0  0
 47 48  1  0  0  0  0
 48 49  1  0  0  0  0
 49 50  2  0  0  0  0
 35 51  1  0  0  0  0
 50 51  1  0  0  0  0
 51 52  2  0  0  0  0
 48 53  2  0  0  0  0
 52 53  1  0  0  0  0
 38 54  1  0  0  0  0
 42 54  2  0  0  0  0
 46 55  1  0  0  0  0
 47 56  1  0  0  0  0
 52 57  1  0  0  0  0
 53 58  1  0  0  0  0
 54 59  1  0  0  0  0
 36 60  1  0  0  0  0
 36 61  1  0  0  0  0
 36 62  1  0  0  0  0
 49 63  1  0  0  0  0
 50 64  1  0  0  0  0
 39 65  1  0  0  0  0
 40 66  1  0  0  0  0
 41 67  1  0  0  0  0
 43 68  1  0  0  0  0
 70 71  1  0  0  0  0
 71 72  1  0  0  0  0
 72 73  2  0  0  0  0
 73 74  1  0  0  0  0
 74 75  2  0  0  0  0
 75 76  1  0  0  0  0
 76 77  1  0  0  0  0
 77 78  1  0  0  0  0
 78 79  2  0  0  0  0
 78 80  1  0  0  0  0
 80 81  2  0  0  0  0
 81 82  1  0  0  0  0
 82 83  1  0  0  0  0
 83 84  2  0  0  0  0
 69 85  1  0  0  0  0
 84 85  1  0  0  0  0
 85 86  2  0  0  0  0
 82 87  2  0  0  0  0
 86 87  1  0  0  0  0
 72 88  1  0  0  0  0
 76 88  2  0  0  0  0
 80 89  1  0  0  0  0
 81 90  1  0  0  0  0
 86 91  1  0  0  0  0
 87 92  1  0  0  0  0
 88 93  1  0  0  0  0
 70 94  1  0  0  0  0
 70 95  1  0  0  0  0
 70 96  1  0  0  0  0
 83 97  1  0  0  0  0
 84 98  1  0  0  0  0
 73 99  1  0  0  0  0
 74100  1  0  0  0  0
 75101  1  0  0  0  0
 77102  1  0  0  0  0
104105  1  0  0  0  0
105106  1  0  0  0  0
106107  2  0  0  0  0
107108  1  0  0  0  0
108109  2  0  0  0  0
109110  1  0  0  0  0
110111  1  0  0  0  0
111112  1  0  0  0  0
112113  2  0  0  0  0
112114  1  0  0  0  0
114115  2  0  0  0  0
115116  1  0  0  0  0
116117  1  0  0  0  0
117118  2  0  0  0  0
103119  1  0  0  0  0
118119  1  0  0  0  0
119120  2  0  0  0  0
116121  2  0  0  0  0
120121  1  0  0  0  0
106122  1  0  0  0  0
110122  2  0  0  0  0
114123  1  0  0  0  0
115124  1  0  0  0  0
120125  1  0  0  0  0
121126  1  0  0  0  0
122127  1  0  0  0  0
104128  1  0  0  0  0
104129  1  0  0  0  0
104130  1  0  0  0  0
117131  1  0  0  0  0
118132  1  0  0  0  0
107133  1  0  0  0  0
108134  1  0  0  0  0
109135  1  0  0  0  0
111136  1  0  0  0  0
M  END
$$$$
