8GFA
  PyMOL3.1          3D                             0

 34 35  0  0  0  0  0  0  0  0999 V2000
  103.7220  126.5230   80.5640 Cl  0  0  0  0  0  0  0  0  0  0  0  0
   97.6420  126.8730   93.8710 C   0  0  0  0  0  0  0  0  0  0  0  0
   97.9890  126.8180   92.4980 O   0  0  0  0  0  0  0  0  0  0  0  0
   98.7470  125.7620   92.0810 C   0  0  0  0  0  0  0  0  0  0  0  0
   99.1110  124.6790   92.8580 C   0  0  0  0  0  0  0  0  0  0  0  0
   99.9470  123.7180   92.3250 C   0  0  0  0  0  0  0  0  0  0  0  0
  100.4170  123.8340   91.0320 C   0  0  0  0  0  0  0  0  0  0  0  0
  100.0470  124.9200   90.2610 C   0  0  0  0  0  0  0  0  0  0  0  0
  100.4960  125.1320   88.9500 N   0  0  0  0  0  0  0  0  0  0  0  0
  101.6700  124.8180   88.3900 C   0  0  0  0  0  0  0  0  0  0  0  0
  102.5810  124.2510   88.9950 O   0  0  0  0  0  0  0  0  0  0  0  0
  101.7710  125.2260   86.9780 C   0  0  0  0  0  0  0  0  0  0  0  0
  102.8730  125.0820   86.2870 C   0  0  0  0  0  0  0  0  0  0  0  0
  103.0700  125.4500   84.8930 C   0  0  0  0  0  0  0  0  0  0  0  0
  104.3040  125.2640   84.2870 C   0  0  0  0  0  0  0  0  0  0  0  0
  104.5100  125.5970   82.9630 C   0  0  0  0  0  0  0  0  0  0  0  0
  103.4740  126.1230   82.2370 C   0  0  0  0  0  0  0  0  0  0  0  0
  102.2410  126.3220   82.8010 C   0  0  0  0  0  0  0  0  0  0  0  0
  102.0440  125.9850   84.1240 C   0  0  0  0  0  0  0  0  0  0  0  0
   99.2080  125.8890   90.7870 C   0  0  0  0  0  0  0  0  0  0  0  0
  100.9580  125.6210   86.6320 H   0  0  0  0  0  0  0  0  0  0  0  0
  103.6610  124.7060   86.7130 H   0  0  0  0  0  0  0  0  0  0  0  0
  101.5090  126.7090   82.2910 H   0  0  0  0  0  0  0  0  0  0  0  0
  101.1620  126.1160   84.5070 H   0  0  0  0  0  0  0  0  0  0  0  0
   98.9360  126.6710   90.2740 H   0  0  0  0  0  0  0  0  0  0  0  0
   98.4330  126.9180   94.4390 H   0  0  0  0  0  0  0  0  0  0  0  0
   97.0740  126.1230   94.1260 H   0  0  0  0  0  0  0  0  0  0  0  0
   97.1380  127.6960   93.9980 H   0  0  0  0  0  0  0  0  0  0  0  0
  105.0420  124.9040   84.8070 H   0  0  0  0  0  0  0  0  0  0  0  0
  105.3860  125.4640   82.5600 H   0  0  0  0  0  0  0  0  0  0  0  0
   98.8090  124.5600   93.7760 H   0  0  0  0  0  0  0  0  0  0  0  0
  100.1960  122.9490   92.8640 H   0  0  0  0  0  0  0  0  0  0  0  0
  101.0230  123.1600   90.6850 H   0  0  0  0  0  0  0  0  0  0  0  0
   99.9210  125.5400   88.4420 H   0  0  0  0  0  0  0  0  0  0  0  0
  2  3  1  0  0  0  0
  2 26  1  0  0  0  0
  2 27  1  0  0  0  0
  2 28  1  0  0  0  0
  3  4  1  0  0  0  0
  4  5  4  0  0  0  0
  5  6  4  0  0  0  0
  5 31  1  0  0  0  0
  6  7  4  0  0  0  0
  6 32  1  0  0  0  0
  7  8  4  0  0  0  0
  7 33  1  0  0  0  0
  8  9  1  0  0  0  0
  9 34  1  0  0  0  0
  9 10  1  0  0  0  0
 10 11  2  0  0  0  0
 10 12  1  0  0  0  0
 12 13  1  0  0  0  0
 12 21  1  0  0  0  0
 13 14  1  0  0  0  0
 13 22  1  0  0  0  0
 14 15  4  0  0  0  0
 14 19  4  0  0  0  0
 15 16  4  0  0  0  0
 15 29  1  0  0  0  0
 16 17  4  0  0  0  0
 16 30  1  0  0  0  0
  1 17  1  0  0  0  0
 17 18  4  0  0  0  0
 18 19  4  0  0  0  0
 18 23  1  0  0  0  0
 19 24  1  0  0  0  0
  4 20  4  0  0  0  0
  8 20  4  0  0  0  0
 20 25  1  0  0  0  0
M  END
$$$$
