8R4O
  PyMOL3.1          3D                             0

 33 36  0  0  0  0  0  0  0  0999 V2000
  -45.6760   80.8730  -75.9180 C   0  0  0  0  0  0  0  0  0  0  0  0
  -44.8860   81.4870  -76.9340 O   0  0  0  0  0  0  0  0  0  0  0  0
  -45.5460   81.4740  -78.1670 C   0  0  0  0  0  0  0  0  0  0  0  0
  -46.9290   81.3280  -78.3130 C   0  0  0  0  0  0  0  0  0  0  0  0
  -47.5300   81.3370  -79.5710 C   0  0  0  0  0  0  0  0  0  0  0  0
  -46.7570   81.5010  -80.7190 C   0  0  0  0  0  0  0  0  0  0  0  0
  -45.3690   81.6480  -80.5960 C   0  0  0  0  0  0  0  0  0  0  0  0
  -44.4870   81.8450  -81.6590 O   0  0  0  0  0  0  0  0  0  0  0  0
  -45.0090   81.4300  -82.9130 C   0  0  0  0  0  0  0  0  0  0  0  0
  -44.7920   81.6370  -79.3290 C   0  0  0  0  0  0  0  0  0  0  0  0
  -43.3530   81.7820  -79.2340 C   0  0  0  0  0  0  0  0  0  0  0  0
  -42.6160   80.9180  -79.6850 O   0  0  0  0  0  0  0  0  0  0  0  0
  -42.9900   82.9290  -78.6080 N   0  0  0  0  0  0  0  0  0  0  0  0
  -41.6440   83.1120  -78.2300 C   0  0  0  0  0  0  0  0  0  0  0  0
  -41.3080   84.0060  -77.0690 C   0  0  0  0  0  0  0  0  0  0  0  0
  -40.8900   84.3880  -78.4580 C   0  0  0  0  0  0  0  0  0  0  0  0
  -48.9460   81.1560  -79.6650 C   0  0  0  0  0  0  0  0  0  0  0  0
  -49.6820   80.3280  -80.5250 C   0  0  0  0  0  0  0  0  0  0  0  0
  -50.9930   80.3840  -80.2790 N   0  0  0  0  0  0  0  0  0  0  0  0
  -51.1270   81.2570  -79.2470 N   0  0  0  0  0  0  0  0  0  0  0  0
  -52.3120   81.6300  -78.6110 C   0  0  0  0  0  0  0  0  0  0  0  0
  -52.2780   82.5240  -77.6000 C   0  0  0  0  0  0  0  0  0  0  0  0
  -50.9810   83.0730  -77.1820 C   0  0  0  0  0  0  0  0  0  0  0  0
  -49.8350   82.6980  -77.7820 C   0  0  0  0  0  0  0  0  0  0  0  0
  -49.8810   81.7510  -78.8480 C   0  0  0  0  0  0  0  0  0  0  0  0
  -53.4710   83.0060  -76.8370 C   0  0  0  0  0  0  0  0  0  0  0  0
  -53.3790   82.3990  -75.4700 C   0  0  0  0  0  0  0  0  0  0  0  0
  -54.8000   82.6220  -77.4420 C   0  0  0  0  0  0  0  0  0  0  0  0
  -53.3860   84.4540  -76.7170 C   0  0  0  0  0  0  0  0  0  0  0  0
  -53.3040   85.6070  -76.6180 N   0  0  0  0  0  0  0  0  0  0  0  0
  -45.5620   82.5250  -83.4880 F   0  0  0  0  0  0  0  0  0  0  0  0
  -43.9420   81.1010  -83.6910 F   0  0  0  0  0  0  0  0  0  0  0  0
  -41.5900   85.4120  -79.0870 F   0  0  0  0  0  0  0  0  0  0  0  0
  1  2  1  0  0  0  0
  2  3  1  0  0  0  0
  3  4  2  0  0  0  0
  4  5  1  0  0  0  0
  5  6  2  0  0  0  0
  6  7  1  0  0  0  0
  7  8  1  0  0  0  0
  8  9  1  0  0  0  0
  3 10  1  0  0  0  0
  7 10  2  0  0  0  0
 10 11  1  0  0  0  0
 11 12  2  0  0  0  0
 11 13  1  0  0  0  0
 13 14  1  0  0  0  0
 14 15  1  0  0  0  0
 14 16  1  0  0  0  0
 15 16  1  0  0  0  0
  5 17  1  0  0  0  0
 17 18  1  0  0  0  0
 18 19  2  0  0  0  0
 19 20  1  0  0  0  0
 20 21  1  0  0  0  0
 21 22  2  0  0  0  0
 22 23  1  0  0  0  0
 23 24  2  0  0  0  0
 17 25  2  0  0  0  0
 20 25  1  0  0  0  0
 24 25  1  0  0  0  0
 22 26  1  0  0  0  0
 26 27  1  0  0  0  0
 26 28  1  0  0  0  0
 26 29  1  0  0  0  0
 29 30  3  0  0  0  0
  9 31  1  0  0  0  0
  9 32  1  0  0  0  0
 16 33  1  0  0  0  0
M  END
$$$$
