8R4O
  PyMOL3.1          3D                             0

 33 36  0  0  0  0  0  0  0  0999 V2000
  -20.0040   41.3640  -29.8970 C   0  0  0  0  0  0  0  0  0  0  0  0
  -20.3480   42.3020  -30.9190 O   0  0  0  0  0  0  0  0  0  0  0  0
  -19.2110   42.9290  -31.4290 C   0  0  0  0  0  0  0  0  0  0  0  0
  -17.9240   42.3930  -31.3570 C   0  0  0  0  0  0  0  0  0  0  0  0
  -16.8250   43.0540  -31.8970 C   0  0  0  0  0  0  0  0  0  0  0  0
  -16.9970   44.2800  -32.5390 C   0  0  0  0  0  0  0  0  0  0  0  0
  -18.2830   44.8350  -32.6280 C   0  0  0  0  0  0  0  0  0  0  0  0
  -18.6260   46.0260  -33.2640 O   0  0  0  0  0  0  0  0  0  0  0  0
  -17.5110   46.8600  -33.5130 C   0  0  0  0  0  0  0  0  0  0  0  0
  -19.3630   44.1500  -32.0790 C   0  0  0  0  0  0  0  0  0  0  0  0
  -20.6770   44.7690  -32.1960 C   0  0  0  0  0  0  0  0  0  0  0  0
  -20.9100   45.8500  -31.6620 O   0  0  0  0  0  0  0  0  0  0  0  0
  -21.5330   44.0000  -32.9350 N   0  0  0  0  0  0  0  0  0  0  0  0
  -22.9130   44.2920  -32.9460 C   0  0  0  0  0  0  0  0  0  0  0  0
  -23.9120   43.1990  -33.2110 C   0  0  0  0  0  0  0  0  0  0  0  0
  -23.7230   44.3020  -34.2000 C   0  0  0  0  0  0  0  0  0  0  0  0
  -15.5360   42.4440  -31.8010 C   0  0  0  0  0  0  0  0  0  0  0  0
  -14.2990   42.9940  -31.4350 C   0  0  0  0  0  0  0  0  0  0  0  0
  -13.3060   42.1030  -31.4020 N   0  0  0  0  0  0  0  0  0  0  0  0
  -13.9000   40.9300  -31.7540 N   0  0  0  0  0  0  0  0  0  0  0  0
  -13.3110   39.6580  -31.8260 C   0  0  0  0  0  0  0  0  0  0  0  0
  -14.0430   38.5830  -32.1950 C   0  0  0  0  0  0  0  0  0  0  0  0
  -15.4640   38.7590  -32.4980 C   0  0  0  0  0  0  0  0  0  0  0  0
  -16.0450   39.9710  -32.4140 C   0  0  0  0  0  0  0  0  0  0  0  0
  -15.2670   41.1100  -32.0150 C   0  0  0  0  0  0  0  0  0  0  0  0
  -13.5410   37.1900  -32.3050 C   0  0  0  0  0  0  0  0  0  0  0  0
  -12.0370   37.0720  -32.2080 C   0  0  0  0  0  0  0  0  0  0  0  0
  -14.1500   36.3840  -31.1890 C   0  0  0  0  0  0  0  0  0  0  0  0
  -14.0240   36.6110  -33.5490 C   0  0  0  0  0  0  0  0  0  0  0  0
  -14.4210   36.1210  -34.5250 N   0  0  0  0  0  0  0  0  0  0  0  0
  -17.9730   48.1210  -33.2800 F   0  0  0  0  0  0  0  0  0  0  0  0
  -17.2340   46.7580  -34.8430 F   0  0  0  0  0  0  0  0  0  0  0  0
  -23.0370   43.9610  -35.3480 F   0  0  0  0  0  0  0  0  0  0  0  0
  1  2  1  0  0  0  0
  2  3  1  0  0  0  0
  3  4  2  0  0  0  0
  4  5  1  0  0  0  0
  5  6  2  0  0  0  0
  6  7  1  0  0  0  0
  7  8  1  0  0  0  0
  8  9  1  0  0  0  0
  3 10  1  0  0  0  0
  7 10  2  0  0  0  0
 10 11  1  0  0  0  0
 11 12  2  0  0  0  0
 11 13  1  0  0  0  0
 13 14  1  0  0  0  0
 14 15  1  0  0  0  0
 14 16  1  0  0  0  0
 15 16  1  0  0  0  0
  5 17  1  0  0  0  0
 17 18  1  0  0  0  0
 18 19  2  0  0  0  0
 19 20  1  0  0  0  0
 20 21  1  0  0  0  0
 21 22  2  0  0  0  0
 22 23  1  0  0  0  0
 23 24  2  0  0  0  0
 17 25  2  0  0  0  0
 20 25  1  0  0  0  0
 24 25  1  0  0  0  0
 22 26  1  0  0  0  0
 26 27  1  0  0  0  0
 26 28  1  0  0  0  0
 26 29  1  0  0  0  0
 29 30  3  0  0  0  0
  9 31  1  0  0  0  0
  9 32  1  0  0  0  0
 16 33  1  0  0  0  0
M  END
$$$$
