8R4O
  PyMOL3.1          3D                             0

 33 36  0  0  0  0  0  0  0  0999 V2000
   17.8790   12.6290  -85.3850 C   0  0  0  0  0  0  0  0  0  0  0  0
   18.9070   13.5760  -85.0870 O   0  0  0  0  0  0  0  0  0  0  0  0
   18.4380   14.8900  -85.0770 C   0  0  0  0  0  0  0  0  0  0  0  0
   17.0880   15.2430  -85.0800 C   0  0  0  0  0  0  0  0  0  0  0  0
   16.6790   16.5740  -85.0280 C   0  0  0  0  0  0  0  0  0  0  0  0
   17.6230   17.6000  -84.9720 C   0  0  0  0  0  0  0  0  0  0  0  0
   18.9830   17.2630  -84.9670 C   0  0  0  0  0  0  0  0  0  0  0  0
   20.0220   18.1800  -84.8340 O   0  0  0  0  0  0  0  0  0  0  0  0
   19.8830   19.3180  -85.6700 C   0  0  0  0  0  0  0  0  0  0  0  0
   19.3690   15.9230  -85.0050 C   0  0  0  0  0  0  0  0  0  0  0  0
   20.7910   15.6100  -84.9510 C   0  0  0  0  0  0  0  0  0  0  0  0
   21.5690   16.0440  -85.7800 O   0  0  0  0  0  0  0  0  0  0  0  0
   21.0980   14.8380  -83.8710 N   0  0  0  0  0  0  0  0  0  0  0  0
   22.3400   14.1710  -83.7480 C   0  0  0  0  0  0  0  0  0  0  0  0
   22.5430   13.1760  -82.6330 C   0  0  0  0  0  0  0  0  0  0  0  0
   23.3420   14.4430  -82.6620 C   0  0  0  0  0  0  0  0  0  0  0  0
   15.2720   16.8290  -84.9390 C   0  0  0  0  0  0  0  0  0  0  0  0
   14.4560   17.7560  -85.6020 C   0  0  0  0  0  0  0  0  0  0  0  0
   13.1710   17.6500  -85.2630 N   0  0  0  0  0  0  0  0  0  0  0  0
   13.1290   16.6370  -84.3560 N   0  0  0  0  0  0  0  0  0  0  0  0
   12.0010   16.0960  -83.7210 C   0  0  0  0  0  0  0  0  0  0  0  0
   12.1120   15.0700  -82.8490 C   0  0  0  0  0  0  0  0  0  0  0  0
   13.4540   14.5420  -82.5770 C   0  0  0  0  0  0  0  0  0  0  0  0
   14.5430   15.0470  -83.1860 C   0  0  0  0  0  0  0  0  0  0  0  0
   14.4090   16.1200  -84.1290 C   0  0  0  0  0  0  0  0  0  0  0  0
   10.9630   14.4510  -82.1070 C   0  0  0  0  0  0  0  0  0  0  0  0
   11.0010   12.9460  -82.2210 C   0  0  0  0  0  0  0  0  0  0  0  0
    9.6270   14.9090  -82.6320 C   0  0  0  0  0  0  0  0  0  0  0  0
   11.0120   14.8230  -80.6950 C   0  0  0  0  0  0  0  0  0  0  0  0
   11.0440   15.1170  -79.5730 N   0  0  0  0  0  0  0  0  0  0  0  0
   19.1330   20.2230  -84.9760 F   0  0  0  0  0  0  0  0  0  0  0  0
   21.1300   19.8770  -85.7360 F   0  0  0  0  0  0  0  0  0  0  0  0
   23.0220   15.4170  -81.7240 F   0  0  0  0  0  0  0  0  0  0  0  0
  1  2  1  0  0  0  0
  2  3  1  0  0  0  0
  3  4  2  0  0  0  0
  4  5  1  0  0  0  0
  5  6  2  0  0  0  0
  6  7  1  0  0  0  0
  7  8  1  0  0  0  0
  8  9  1  0  0  0  0
  3 10  1  0  0  0  0
  7 10  2  0  0  0  0
 10 11  1  0  0  0  0
 11 12  2  0  0  0  0
 11 13  1  0  0  0  0
 13 14  1  0  0  0  0
 14 15  1  0  0  0  0
 14 16  1  0  0  0  0
 15 16  1  0  0  0  0
  5 17  1  0  0  0  0
 17 18  1  0  0  0  0
 18 19  2  0  0  0  0
 19 20  1  0  0  0  0
 20 21  1  0  0  0  0
 21 22  2  0  0  0  0
 22 23  1  0  0  0  0
 23 24  2  0  0  0  0
 17 25  2  0  0  0  0
 20 25  1  0  0  0  0
 24 25  1  0  0  0  0
 22 26  1  0  0  0  0
 26 27  1  0  0  0  0
 26 28  1  0  0  0  0
 26 29  1  0  0  0  0
 29 30  3  0  0  0  0
  9 31  1  0  0  0  0
  9 32  1  0  0  0  0
 16 33  1  0  0  0  0
M  END
$$$$
