8R4O
  PyMOL3.1          3D                             0

 33 36  0  0  0  0  0  0  0  0999 V2000
  -17.5400    8.9590  -94.2410 C   0  0  0  0  0  0  0  0  0  0  0  0
  -18.4940    7.9860  -94.6600 O   0  0  0  0  0  0  0  0  0  0  0  0
  -17.8820    6.7800  -94.9970 C   0  0  0  0  0  0  0  0  0  0  0  0
  -16.6280    6.3950  -94.5240 C   0  0  0  0  0  0  0  0  0  0  0  0
  -16.0660    5.1590  -94.8490 C   0  0  0  0  0  0  0  0  0  0  0  0
  -16.7560    4.2740  -95.6730 C   0  0  0  0  0  0  0  0  0  0  0  0
  -18.0190    4.6360  -96.1590 C   0  0  0  0  0  0  0  0  0  0  0  0
  -18.8230    3.8380  -96.9600 O   0  0  0  0  0  0  0  0  0  0  0  0
  -18.1150    2.7370  -97.5130 C   0  0  0  0  0  0  0  0  0  0  0  0
  -18.5640    5.8700  -95.8050 C   0  0  0  0  0  0  0  0  0  0  0  0
  -19.8830    6.2090  -96.3280 C   0  0  0  0  0  0  0  0  0  0  0  0
  -20.0690    6.3470  -97.5300 O   0  0  0  0  0  0  0  0  0  0  0  0
  -20.8020    6.3470  -95.3360 N   0  0  0  0  0  0  0  0  0  0  0  0
  -22.0650    6.9190  -95.5940 C   0  0  0  0  0  0  0  0  0  0  0  0
  -22.8140    7.6190  -94.4890 C   0  0  0  0  0  0  0  0  0  0  0  0
  -23.3130    6.3140  -95.0310 C   0  0  0  0  0  0  0  0  0  0  0  0
  -14.7800    4.8100  -94.3140 C   0  0  0  0  0  0  0  0  0  0  0  0
  -13.6560    4.2650  -94.9540 C   0  0  0  0  0  0  0  0  0  0  0  0
  -12.5990    4.1470  -94.1510 N   0  0  0  0  0  0  0  0  0  0  0  0
  -13.0370    4.6200  -92.9590 N   0  0  0  0  0  0  0  0  0  0  0  0
  -12.2950    4.7740  -91.7960 C   0  0  0  0  0  0  0  0  0  0  0  0
  -12.8740    5.2630  -90.6820 C   0  0  0  0  0  0  0  0  0  0  0  0
  -14.2750    5.6670  -90.7140 C   0  0  0  0  0  0  0  0  0  0  0  0
  -14.9850    5.5540  -91.8460 C   0  0  0  0  0  0  0  0  0  0  0  0
  -14.3700    5.0300  -93.0210 C   0  0  0  0  0  0  0  0  0  0  0  0
  -12.1850    5.4670  -89.3950 C   0  0  0  0  0  0  0  0  0  0  0  0
  -11.9670    6.9470  -89.2730 C   0  0  0  0  0  0  0  0  0  0  0  0
  -10.8690    4.7470  -89.3020 C   0  0  0  0  0  0  0  0  0  0  0  0
  -13.0370    5.0050  -88.3110 C   0  0  0  0  0  0  0  0  0  0  0  0
  -13.7110    4.6460  -87.4390 N   0  0  0  0  0  0  0  0  0  0  0  0
  -18.3040    1.6570  -96.7130 F   0  0  0  0  0  0  0  0  0  0  0  0
  -18.7310    2.4220  -98.6760 F   0  0  0  0  0  0  0  0  0  0  0  0
  -23.1530    5.1930  -94.2080 F   0  0  0  0  0  0  0  0  0  0  0  0
  1  2  1  0  0  0  0
  2  3  1  0  0  0  0
  3  4  2  0  0  0  0
  4  5  1  0  0  0  0
  5  6  2  0  0  0  0
  6  7  1  0  0  0  0
  7  8  1  0  0  0  0
  8  9  1  0  0  0  0
  3 10  1  0  0  0  0
  7 10  2  0  0  0  0
 10 11  1  0  0  0  0
 11 12  2  0  0  0  0
 11 13  1  0  0  0  0
 13 14  1  0  0  0  0
 14 15  1  0  0  0  0
 14 16  1  0  0  0  0
 15 16  1  0  0  0  0
  5 17  1  0  0  0  0
 17 18  1  0  0  0  0
 18 19  2  0  0  0  0
 19 20  1  0  0  0  0
 20 21  1  0  0  0  0
 21 22  2  0  0  0  0
 22 23  1  0  0  0  0
 23 24  2  0  0  0  0
 17 25  2  0  0  0  0
 20 25  1  0  0  0  0
 24 25  1  0  0  0  0
 22 26  1  0  0  0  0
 26 27  1  0  0  0  0
 26 28  1  0  0  0  0
 26 29  1  0  0  0  0
 29 30  3  0  0  0  0
  9 31  1  0  0  0  0
  9 32  1  0  0  0  0
 16 33  1  0  0  0  0
M  END
$$$$
