7WKW
  PyMOL3.1          3D                             0

 34 36  0  0  0  0  0  0  0  0999 V2000
  109.5660   92.5410  101.2000 C   0  0  0  0  0  0  0  0  0  0  0  0
  109.9400   91.7070  100.1560 C   0  0  0  0  0  0  0  0  0  0  0  0
  109.3650   90.4510  100.0260 C   0  0  0  0  0  0  0  0  0  0  0  0
  108.4010   90.0160  100.9520 C   0  0  0  0  0  0  0  0  0  0  0  0
  108.0340   90.8450  101.9850 C   0  0  0  0  0  0  0  0  0  0  0  0
  108.6180   92.1160  102.1150 C   0  0  0  0  0  0  0  0  0  0  0  0
  107.0730   90.4240  102.9190 C   0  0  0  0  0  0  0  0  0  0  0  0
  106.4960   89.1710  102.7970 C   0  0  0  0  0  0  0  0  0  0  0  0
  106.8700   88.3310  101.7540 C   0  0  0  0  0  0  0  0  0  0  0  0
  107.8150   88.7410  100.8210 C   0  0  0  0  0  0  0  0  0  0  0  0
  108.2300   87.8760   99.7210 N   0  0  0  0  0  0  0  0  0  0  0  0
  107.4840   86.6950   99.3020 C   0  0  0  0  0  0  0  0  0  0  0  0
  106.4770   86.3840   99.8340 O   0  0  0  0  0  0  0  0  0  0  0  0
  107.9910   85.8290   98.1440 C   0  0  0  0  0  0  0  0  0  0  0  0
  107.0830   85.3850   97.1990 C   0  0  0  0  0  0  0  0  0  0  0  0
  107.5050   84.5970   96.1420 C   0  0  0  0  0  0  0  0  0  0  0  0
  108.8390   84.2480   96.0260 C   0  0  0  0  0  0  0  0  0  0  0  0
  109.7500   84.6860   96.9700 C   0  0  0  0  0  0  0  0  0  0  0  0
  109.3310   85.4720   98.0300 C   0  0  0  0  0  0  0  0  0  0  0  0
  110.3660   85.9380   99.0500 C   0  0  0  0  0  0  0  0  0  0  0  0
  110.5360   85.2990  100.1190 O   0  0  0  0  0  0  0  0  0  0  0  0
  111.0560   86.9630   98.8180 O   0  0  0  0  0  0  0  0  0  0  0  0
  109.9510   93.3840  101.2840 H   0  0  0  0  0  0  0  0  0  0  0  0
  110.5770   91.9910   99.5400 H   0  0  0  0  0  0  0  0  0  0  0  0
  109.6200   89.8950   99.3250 H   0  0  0  0  0  0  0  0  0  0  0  0
  108.3640   92.6740  102.8140 H   0  0  0  0  0  0  0  0  0  0  0  0
  106.8250   90.9860  103.6170 H   0  0  0  0  0  0  0  0  0  0  0  0
  105.8590   88.8900  103.4140 H   0  0  0  0  0  0  0  0  0  0  0  0
  106.4760   87.4930  101.6800 H   0  0  0  0  0  0  0  0  0  0  0  0
  108.9590   88.0620   99.3060 H   0  0  0  0  0  0  0  0  0  0  0  0
  106.1860   85.6190   97.2730 H   0  0  0  0  0  0  0  0  0  0  0  0
  106.8910   84.3040   95.5080 H   0  0  0  0  0  0  0  0  0  0  0  0
  109.1220   83.7180   95.3150 H   0  0  0  0  0  0  0  0  0  0  0  0
  110.6470   84.4510   96.8930 H   0  0  0  0  0  0  0  0  0  0  0  0
  1  2  2  0  0  0  0
  2  3  1  0  0  0  0
  3  4  2  0  0  0  0
  4  5  1  0  0  0  0
  1  6  1  0  0  0  0
  5  6  2  0  0  0  0
  5  7  1  0  0  0  0
  7  8  2  0  0  0  0
  8  9  1  0  0  0  0
  4 10  1  0  0  0  0
  9 10  2  0  0  0  0
 10 11  1  0  0  0  0
 11 12  1  0  0  0  0
 12 13  2  0  0  0  0
 12 14  1  0  0  0  0
 14 15  1  0  0  0  0
 15 16  2  0  0  0  0
 16 17  1  0  0  0  0
 17 18  2  0  0  0  0
 14 19  2  0  0  0  0
 18 19  1  0  0  0  0
 19 20  1  0  0  0  0
 20 21  1  0  0  0  0
 20 22  2  0  0  0  0
  1 23  1  0  0  0  0
  2 24  1  0  0  0  0
  3 25  1  0  0  0  0
  6 26  1  0  0  0  0
  7 27  1  0  0  0  0
  8 28  1  0  0  0  0
  9 29  1  0  0  0  0
 11 30  1  0  0  0  0
 15 31  1  0  0  0  0
 16 32  1  0  0  0  0
 17 33  1  0  0  0  0
 18 34  1  0  0  0  0
M  END
$$$$
