8BLP
  PyMOL3.1          3D                             0

 30 34  0  0  0  0  0  0  0  0999 V2000
  107.5580  115.0720  110.6820 C   0  0  0  0  0  0  0  0  0  0  0  0
  107.5110  115.8970  109.5710 C   0  0  0  0  0  0  0  0  0  0  0  0
  106.6110  116.9440  109.5530 C   0  0  0  0  0  0  0  0  0  0  0  0
  105.7600  117.1830  110.6190 C   0  0  0  0  0  0  0  0  0  0  0  0
  105.8360  116.3460  111.7220 C   0  0  0  0  0  0  0  0  0  0  0  0
  106.7260  115.2900  111.7660 C   0  0  0  0  0  0  0  0  0  0  0  0
  104.7870  118.3430  110.5830 C   0  0  0  0  0  0  0  0  0  0  0  0
  105.4980  119.6690  110.6310 C   0  0  0  0  0  0  0  0  0  0  0  0
  107.9190  112.4110  109.9210 C   0  0  0  0  0  0  0  0  0  0  0  0
  107.1960  111.4220  110.4740 C   0  0  0  0  0  0  0  0  0  0  0  0
  106.1230  110.0970  112.0060 C   0  0  0  0  0  0  0  0  0  0  0  0
  105.7020  109.2650  110.9420 C   0  0  0  0  0  0  0  0  0  0  0  0
  106.0410  109.5290  109.6380 C   0  0  0  0  0  0  0  0  0  0  0  0
  104.7270  107.6720  109.3770 C   0  0  0  0  0  0  0  0  0  0  0  0
  105.5150  108.5700  108.7340 C   0  0  0  0  0  0  0  0  0  0  0  0
  105.6970  110.8160  114.2870 C   0  0  0  0  0  0  0  0  0  0  0  0
  106.7500  110.5670  115.3170 C   0  0  0  0  0  0  0  0  0  0  0  0
  106.8130  110.6490  109.4300 N   0  0  0  0  0  0  0  0  0  0  0  0
  107.2900  111.1450  108.2570 N   0  0  0  0  0  0  0  0  0  0  0  0
  107.9720  112.2300  108.5730 N   0  0  0  0  0  0  0  0  0  0  0  0
  106.8930  111.2110  111.7730 N   0  0  0  0  0  0  0  0  0  0  0  0
  105.7770  109.8150  113.2540 N   0  0  0  0  0  0  0  0  0  0  0  0
  109.8250  114.1210  109.8900 O   0  0  0  0  0  0  0  0  0  0  0  0
  108.9300  113.3660  112.0810 O   0  0  0  0  0  0  0  0  0  0  0  0
  108.7120  113.7410  110.7120 S   0  0  0  0  0  0  0  0  0  0  0  0
  104.7420  107.8490  111.0750 S   0  0  0  0  0  0  0  0  0  0  0  0
  108.1180  110.8210  115.2030 C   0  0  0  0  0  0  0  0  0  0  0  0
  108.7940  110.4820  116.4060 C   0  0  0  0  0  0  0  0  0  0  0  0
  107.9870  109.9520  117.3460 C   0  0  0  0  0  0  0  0  0  0  0  0
  106.3660  109.8970  116.8430 S   0  0  0  0  0  0  0  0  0  0  0  0
  1  2  2  0  0  0  0
  2  3  1  0  0  0  0
  3  4  2  0  0  0  0
  4  5  1  0  0  0  0
  1  6  1  0  0  0  0
  5  6  2  0  0  0  0
  4  7  1  0  0  0  0
  7  8  1  0  0  0  0
  9 10  2  0  0  0  0
 11 12  1  0  0  0  0
 12 13  2  0  0  0  0
 13 15  1  0  0  0  0
 14 15  2  0  0  0  0
 16 17  1  0  0  0  0
 10 18  1  0  0  0  0
 13 18  1  0  0  0  0
 18 19  1  0  0  0  0
  9 20  1  0  0  0  0
 19 20  2  0  0  0  0
 10 21  1  0  0  0  0
 11 21  2  0  0  0  0
 11 22  1  0  0  0  0
 16 22  1  0  0  0  0
  1 25  1  0  0  0  0
  9 25  1  0  0  0  0
 23 25  2  0  0  0  0
 24 25  2  0  0  0  0
 12 26  1  0  0  0  0
 14 26  1  0  0  0  0
 17 27  2  0  0  0  0
 27 28  1  0  0  0  0
 28 29  2  0  0  0  0
 17 30  1  0  0  0  0
 29 30  1  0  0  0  0
M  END
$$$$
