8BLP
  PyMOL3.1          3D                             0

 30 34  0  0  0  0  0  0  0  0999 V2000
  116.7590  137.8540  132.8680 C   0  0  0  0  0  0  0  0  0  0  0  0
  116.1430  137.8610  134.1070 C   0  0  0  0  0  0  0  0  0  0  0  0
  114.7640  137.8070  134.1690 C   0  0  0  0  0  0  0  0  0  0  0  0
  113.9890  137.7410  133.0240 C   0  0  0  0  0  0  0  0  0  0  0  0
  114.6340  137.7330  131.7960 C   0  0  0  0  0  0  0  0  0  0  0  0
  116.0110  137.7870  131.7060 C   0  0  0  0  0  0  0  0  0  0  0  0
  112.4770  137.6810  133.1120 C   0  0  0  0  0  0  0  0  0  0  0  0
  111.8010  137.1990  131.8560 C   0  0  0  0  0  0  0  0  0  0  0  0
  119.0100  139.1010  133.9450 C   0  0  0  0  0  0  0  0  0  0  0  0
  119.1890  140.4200  133.7740 C   0  0  0  0  0  0  0  0  0  0  0  0
  119.3000  142.4970  132.8240 C   0  0  0  0  0  0  0  0  0  0  0  0
  119.7010  143.0140  134.0750 C   0  0  0  0  0  0  0  0  0  0  0  0
  119.8420  142.2110  135.1760 C   0  0  0  0  0  0  0  0  0  0  0  0
  120.4140  144.2470  136.0510 C   0  0  0  0  0  0  0  0  0  0  0  0
  120.2530  142.9280  136.3260 C   0  0  0  0  0  0  0  0  0  0  0  0
  118.5710  142.8770  130.5450 C   0  0  0  0  0  0  0  0  0  0  0  0
  119.6280  142.5900  129.5310 C   0  0  0  0  0  0  0  0  0  0  0  0
  119.5700  140.8770  134.9870 N   0  0  0  0  0  0  0  0  0  0  0  0
  119.6310  139.8700  135.8910 N   0  0  0  0  0  0  0  0  0  0  0  0
  119.2850  138.7770  135.2380 N   0  0  0  0  0  0  0  0  0  0  0  0
  119.0340  141.1640  132.6600 N   0  0  0  0  0  0  0  0  0  0  0  0
  119.1700  143.2980  131.7810 N   0  0  0  0  0  0  0  0  0  0  0  0
  119.0240  136.6470  133.2190 O   0  0  0  0  0  0  0  0  0  0  0  0
  118.8850  138.4070  131.4790 O   0  0  0  0  0  0  0  0  0  0  0  0
  118.5190  137.9130  132.7750 S   0  0  0  0  0  0  0  0  0  0  0  0
  120.0660  144.6510  134.4300 S   0  0  0  0  0  0  0  0  0  0  0  0
  119.8780  143.2900  128.3520 C   0  0  0  0  0  0  0  0  0  0  0  0
  120.7290  142.5320  127.5100 C   0  0  0  0  0  0  0  0  0  0  0  0
  121.2520  141.4480  128.1130 C   0  0  0  0  0  0  0  0  0  0  0  0
  120.7110  141.2860  129.7130 S   0  0  0  0  0  0  0  0  0  0  0  0
  1  2  2  0  0  0  0
  2  3  1  0  0  0  0
  3  4  2  0  0  0  0
  4  5  1  0  0  0  0
  1  6  1  0  0  0  0
  5  6  2  0  0  0  0
  4  7  1  0  0  0  0
  7  8  1  0  0  0  0
  9 10  2  0  0  0  0
 11 12  1  0  0  0  0
 12 13  2  0  0  0  0
 13 15  1  0  0  0  0
 14 15  2  0  0  0  0
 16 17  1  0  0  0  0
 10 18  1  0  0  0  0
 13 18  1  0  0  0  0
 18 19  1  0  0  0  0
  9 20  1  0  0  0  0
 19 20  2  0  0  0  0
 10 21  1  0  0  0  0
 11 21  2  0  0  0  0
 11 22  1  0  0  0  0
 16 22  1  0  0  0  0
  1 25  1  0  0  0  0
  9 25  1  0  0  0  0
 23 25  2  0  0  0  0
 24 25  2  0  0  0  0
 12 26  1  0  0  0  0
 14 26  1  0  0  0  0
 17 27  2  0  0  0  0
 27 28  1  0  0  0  0
 28 29  2  0  0  0  0
 17 30  1  0  0  0  0
 29 30  1  0  0  0  0
M  END
$$$$
