8BLP
  PyMOL3.1          3D                             0

 30 34  0  0  0  0  0  0  0  0999 V2000
  137.6060  113.5370  110.7200 C   0  0  0  0  0  0  0  0  0  0  0  0
  136.9140  113.0840  109.6100 C   0  0  0  0  0  0  0  0  0  0  0  0
  136.4610  111.7800  109.5910 C   0  0  0  0  0  0  0  0  0  0  0  0
  136.6820  110.9230  110.6550 C   0  0  0  0  0  0  0  0  0  0  0  0
  137.3690  111.4070  111.7580 C   0  0  0  0  0  0  0  0  0  0  0  0
  137.8350  112.7070  111.8030 C   0  0  0  0  0  0  0  0  0  0  0  0
  136.1670  109.4990  110.6180 C   0  0  0  0  0  0  0  0  0  0  0  0
  134.6630  109.4490  110.6670 C   0  0  0  0  0  0  0  0  0  0  0  0
  139.7250  115.1860  109.9590 C   0  0  0  0  0  0  0  0  0  0  0  0
  140.9440  115.0560  110.5110 C   0  0  0  0  0  0  0  0  0  0  0  0
  142.6300  114.7910  112.0410 C   0  0  0  0  0  0  0  0  0  0  0  0
  143.5600  114.8460  110.9770 C   0  0  0  0  0  0  0  0  0  0  0  0
  143.1600  115.0080  109.6730 C   0  0  0  0  0  0  0  0  0  0  0  0
  145.4260  114.8040  109.4100 C   0  0  0  0  0  0  0  0  0  0  0  0
  144.2530  115.0350  108.7680 C   0  0  0  0  0  0  0  0  0  0  0  0
  142.2240  114.0590  114.3220 C   0  0  0  0  0  0  0  0  0  0  0  0
  141.9120  115.0940  115.3530 C   0  0  0  0  0  0  0  0  0  0  0  0
  141.8040  115.1140  109.4670 N   0  0  0  0  0  0  0  0  0  0  0  0
  141.1350  115.2790  108.2940 N   0  0  0  0  0  0  0  0  0  0  0  0
  139.8540  115.3240  108.6110 N   0  0  0  0  0  0  0  0  0  0  0  0
  141.2800  114.8990  111.8100 N   0  0  0  0  0  0  0  0  0  0  0  0
  143.0490  114.6320  113.2890 N   0  0  0  0  0  0  0  0  0  0  0  0
  137.2900  115.9760  109.9310 O   0  0  0  0  0  0  0  0  0  0  0  0
  138.3940  115.5790  112.1210 O   0  0  0  0  0  0  0  0  0  0  0  0
  138.1780  115.2030  110.7520 S   0  0  0  0  0  0  0  0  0  0  0  0
  145.2670  114.7260  111.1080 S   0  0  0  0  0  0  0  0  0  0  0  0
  141.0050  116.1500  115.2410 C   0  0  0  0  0  0  0  0  0  0  0  0
  140.9610  116.9030  116.4450 C   0  0  0  0  0  0  0  0  0  0  0  0
  141.8250  116.4700  117.3840 C   0  0  0  0  0  0  0  0  0  0  0  0
  142.6850  115.0960  116.8790 S   0  0  0  0  0  0  0  0  0  0  0  0
  1  2  2  0  0  0  0
  2  3  1  0  0  0  0
  3  4  2  0  0  0  0
  4  5  1  0  0  0  0
  1  6  1  0  0  0  0
  5  6  2  0  0  0  0
  4  7  1  0  0  0  0
  7  8  1  0  0  0  0
  9 10  2  0  0  0  0
 11 12  1  0  0  0  0
 12 13  2  0  0  0  0
 13 15  1  0  0  0  0
 14 15  2  0  0  0  0
 16 17  1  0  0  0  0
 10 18  1  0  0  0  0
 13 18  1  0  0  0  0
 18 19  1  0  0  0  0
  9 20  1  0  0  0  0
 19 20  2  0  0  0  0
 10 21  1  0  0  0  0
 11 21  2  0  0  0  0
 11 22  1  0  0  0  0
 16 22  1  0  0  0  0
  1 25  1  0  0  0  0
  9 25  1  0  0  0  0
 23 25  2  0  0  0  0
 24 25  2  0  0  0  0
 12 26  1  0  0  0  0
 14 26  1  0  0  0  0
 17 27  2  0  0  0  0
 27 28  1  0  0  0  0
 28 29  2  0  0  0  0
 17 30  1  0  0  0  0
 29 30  1  0  0  0  0
M  END
$$$$
