8BLP
  PyMOL3.1          3D                             0

180204  0  0  0  0  0  0  0  0999 V2000
  116.7590  137.8540  132.8680 C   0  0  0  0  0  0  0  0  0  0  0  0
  116.1430  137.8610  134.1070 C   0  0  0  0  0  0  0  0  0  0  0  0
  114.7640  137.8070  134.1690 C   0  0  0  0  0  0  0  0  0  0  0  0
  113.9890  137.7410  133.0240 C   0  0  0  0  0  0  0  0  0  0  0  0
  114.6340  137.7330  131.7960 C   0  0  0  0  0  0  0  0  0  0  0  0
  116.0110  137.7870  131.7060 C   0  0  0  0  0  0  0  0  0  0  0  0
  112.4770  137.6810  133.1120 C   0  0  0  0  0  0  0  0  0  0  0  0
  111.8010  137.1990  131.8560 C   0  0  0  0  0  0  0  0  0  0  0  0
  119.0100  139.1010  133.9450 C   0  0  0  0  0  0  0  0  0  0  0  0
  119.1890  140.4200  133.7740 C   0  0  0  0  0  0  0  0  0  0  0  0
  119.3000  142.4970  132.8240 C   0  0  0  0  0  0  0  0  0  0  0  0
  119.7010  143.0140  134.0750 C   0  0  0  0  0  0  0  0  0  0  0  0
  119.8420  142.2110  135.1760 C   0  0  0  0  0  0  0  0  0  0  0  0
  120.4140  144.2470  136.0510 C   0  0  0  0  0  0  0  0  0  0  0  0
  120.2530  142.9280  136.3260 C   0  0  0  0  0  0  0  0  0  0  0  0
  118.5710  142.8770  130.5450 C   0  0  0  0  0  0  0  0  0  0  0  0
  119.6280  142.5900  129.5310 C   0  0  0  0  0  0  0  0  0  0  0  0
  119.5700  140.8770  134.9870 N   0  0  0  0  0  0  0  0  0  0  0  0
  119.6310  139.8700  135.8910 N   0  0  0  0  0  0  0  0  0  0  0  0
  119.2850  138.7770  135.2380 N   0  0  0  0  0  0  0  0  0  0  0  0
  119.0340  141.1640  132.6600 N   0  0  0  0  0  0  0  0  0  0  0  0
  119.1700  143.2980  131.7810 N   0  0  0  0  0  0  0  0  0  0  0  0
  119.0240  136.6470  133.2190 O   0  0  0  0  0  0  0  0  0  0  0  0
  118.8850  138.4070  131.4790 O   0  0  0  0  0  0  0  0  0  0  0  0
  118.5190  137.9130  132.7750 S   0  0  0  0  0  0  0  0  0  0  0  0
  120.0660  144.6510  134.4300 S   0  0  0  0  0  0  0  0  0  0  0  0
  119.8780  143.2900  128.3520 C   0  0  0  0  0  0  0  0  0  0  0  0
  120.7290  142.5320  127.5100 C   0  0  0  0  0  0  0  0  0  0  0  0
  121.2520  141.4480  128.1130 C   0  0  0  0  0  0  0  0  0  0  0  0
  120.7110  141.2860  129.7130 S   0  0  0  0  0  0  0  0  0  0  0  0
  123.8900  140.3550  110.7260 C   0  0  0  0  0  0  0  0  0  0  0  0
  124.6280  139.9820  109.6160 C   0  0  0  0  0  0  0  0  0  0  0  0
  125.9840  140.2420  109.5970 C   0  0  0  0  0  0  0  0  0  0  0  0
  126.6160  140.8610  110.6610 C   0  0  0  0  0  0  0  0  0  0  0  0
  125.8530  141.2140  111.7640 C   0  0  0  0  0  0  0  0  0  0  0  0
  124.4940  140.9680  111.8090 C   0  0  0  0  0  0  0  0  0  0  0  0
  128.1060  141.1270  110.6240 C   0  0  0  0  0  0  0  0  0  0  0  0
  128.9020  139.8500  110.6730 C   0  0  0  0  0  0  0  0  0  0  0  0
  121.4020  141.3650  109.9660 C   0  0  0  0  0  0  0  0  0  0  0  0
  120.9050  142.4860  110.5180 C   0  0  0  0  0  0  0  0  0  0  0  0
  120.2920  144.0780  112.0480 C   0  0  0  0  0  0  0  0  0  0  0  0
  119.7790  144.8560  110.9850 C   0  0  0  0  0  0  0  0  0  0  0  0
  119.8390  144.4290  109.6800 C   0  0  0  0  0  0  0  0  0  0  0  0
  118.8820  146.4940  109.4180 C   0  0  0  0  0  0  0  0  0  0  0  0
  119.2690  145.3630  108.7760 C   0  0  0  0  0  0  0  0  0  0  0  0
  121.1290  144.0920  114.3290 C   0  0  0  0  0  0  0  0  0  0  0  0
  120.3890  143.3040  115.3600 C   0  0  0  0  0  0  0  0  0  0  0  0
  120.4250  143.2020  109.4740 N   0  0  0  0  0  0  0  0  0  0  0  0
  120.6160  142.5400  108.3010 N   0  0  0  0  0  0  0  0  0  0  0  0
  121.2180  141.4080  108.6180 N   0  0  0  0  0  0  0  0  0  0  0  0
  120.8730  142.8550  111.8170 N   0  0  0  0  0  0  0  0  0  0  0  0
  120.2200  144.5200  113.2960 N   0  0  0  0  0  0  0  0  0  0  0  0
  121.9350  138.8620  109.9370 O   0  0  0  0  0  0  0  0  0  0  0  0
  121.7270  140.0160  112.1270 O   0  0  0  0  0  0  0  0  0  0  0  0
  122.1610  140.0170  110.7580 S   0  0  0  0  0  0  0  0  0  0  0  0
  119.0300  146.3950  111.1160 S   0  0  0  0  0  0  0  0  0  0  0  0
  119.9280  141.9910  115.2480 C   0  0  0  0  0  0  0  0  0  0  0  0
  119.2980  141.5760  116.4520 C   0  0  0  0  0  0  0  0  0  0  0  0
  119.2410  142.5410  117.3910 C   0  0  0  0  0  0  0  0  0  0  0  0
  120.0010  143.9720  116.8860 S   0  0  0  0  0  0  0  0  0  0  0  0
  113.3060  110.1350  132.8160 C   0  0  0  0  0  0  0  0  0  0  0  0
  113.6090  109.5980  134.0550 C   0  0  0  0  0  0  0  0  0  0  0  0
  114.3430  108.4290  134.1160 C   0  0  0  0  0  0  0  0  0  0  0  0
  114.7840  107.7900  132.9700 C   0  0  0  0  0  0  0  0  0  0  0  0
  114.4690  108.3530  131.7430 C   0  0  0  0  0  0  0  0  0  0  0  0
  113.7360  109.5210  131.6540 C   0  0  0  0  0  0  0  0  0  0  0  0
  115.5900  106.5090  133.0570 C   0  0  0  0  0  0  0  0  0  0  0  0
  116.3430  106.1630  131.8000 C   0  0  0  0  0  0  0  0  0  0  0  0
  111.1050  111.4660  133.8960 C   0  0  0  0  0  0  0  0  0  0  0  0
  109.8720  110.9640  133.7260 C   0  0  0  0  0  0  0  0  0  0  0  0
  108.0150  110.0260  132.7790 C   0  0  0  0  0  0  0  0  0  0  0  0
  107.3690  110.1160  134.0310 C   0  0  0  0  0  0  0  0  0  0  0  0
  107.9960  110.6380  135.1310 C   0  0  0  0  0  0  0  0  0  0  0  0
  105.9470  110.1200  136.0090 C   0  0  0  0  0  0  0  0  0  0  0  0
  107.1710  110.6370  136.2820 C   0  0  0  0  0  0  0  0  0  0  0  0
  108.0460  109.2040  130.5000 C   0  0  0  0  0  0  0  0  0  0  0  0
  107.7660  110.2640  129.4860 C   0  0  0  0  0  0  0  0  0  0  0  0
  109.2870  111.0660  134.9400 N   0  0  0  0  0  0  0  0  0  0  0  0
  110.1320  111.6210  135.8430 N   0  0  0  0  0  0  0  0  0  0  0  0
  111.2510  111.8660  135.1890 N   0  0  0  0  0  0  0  0  0  0  0  0
  109.3030  110.4590  132.6130 N   0  0  0  0  0  0  0  0  0  0  0  0
  107.3840  109.5140  131.7370 N   0  0  0  0  0  0  0  0  0  0  0  0
  113.2250  112.7010  133.1670 O   0  0  0  0  0  0  0  0  0  0  0  0
  111.7660  111.7040  131.4290 O   0  0  0  0  0  0  0  0  0  0  0  0
  112.3780  111.6320  132.7240 S   0  0  0  0  0  0  0  0  0  0  0  0
  105.7680  109.6160  134.3880 S   0  0  0  0  0  0  0  0  0  0  0  0
  107.0330  110.1310  128.3080 C   0  0  0  0  0  0  0  0  0  0  0  0
  107.2660  111.2470  127.4660 C   0  0  0  0  0  0  0  0  0  0  0  0
  107.9460  112.2400  128.0680 C   0  0  0  0  0  0  0  0  0  0  0  0
  108.3580  111.8520  129.6670 S   0  0  0  0  0  0  0  0  0  0  0  0
  107.5580  115.0720  110.6820 C   0  0  0  0  0  0  0  0  0  0  0  0
  107.5110  115.8970  109.5710 C   0  0  0  0  0  0  0  0  0  0  0  0
  106.6110  116.9440  109.5530 C   0  0  0  0  0  0  0  0  0  0  0  0
  105.7600  117.1830  110.6190 C   0  0  0  0  0  0  0  0  0  0  0  0
  105.8360  116.3460  111.7220 C   0  0  0  0  0  0  0  0  0  0  0  0
  106.7260  115.2900  111.7660 C   0  0  0  0  0  0  0  0  0  0  0  0
  104.7870  118.3430  110.5830 C   0  0  0  0  0  0  0  0  0  0  0  0
  105.4980  119.6690  110.6310 C   0  0  0  0  0  0  0  0  0  0  0  0
  107.9190  112.4110  109.9210 C   0  0  0  0  0  0  0  0  0  0  0  0
  107.1960  111.4220  110.4740 C   0  0  0  0  0  0  0  0  0  0  0  0
  106.1230  110.0970  112.0060 C   0  0  0  0  0  0  0  0  0  0  0  0
  105.7020  109.2650  110.9420 C   0  0  0  0  0  0  0  0  0  0  0  0
  106.0410  109.5290  109.6380 C   0  0  0  0  0  0  0  0  0  0  0  0
  104.7270  107.6720  109.3770 C   0  0  0  0  0  0  0  0  0  0  0  0
  105.5150  108.5700  108.7340 C   0  0  0  0  0  0  0  0  0  0  0  0
  105.6970  110.8160  114.2870 C   0  0  0  0  0  0  0  0  0  0  0  0
  106.7500  110.5670  115.3170 C   0  0  0  0  0  0  0  0  0  0  0  0
  106.8130  110.6490  109.4300 N   0  0  0  0  0  0  0  0  0  0  0  0
  107.2900  111.1450  108.2570 N   0  0  0  0  0  0  0  0  0  0  0  0
  107.9720  112.2300  108.5730 N   0  0  0  0  0  0  0  0  0  0  0  0
  106.8930  111.2110  111.7730 N   0  0  0  0  0  0  0  0  0  0  0  0
  105.7770  109.8150  113.2540 N   0  0  0  0  0  0  0  0  0  0  0  0
  109.8250  114.1210  109.8900 O   0  0  0  0  0  0  0  0  0  0  0  0
  108.9300  113.3660  112.0810 O   0  0  0  0  0  0  0  0  0  0  0  0
  108.7120  113.7410  110.7120 S   0  0  0  0  0  0  0  0  0  0  0  0
  104.7420  107.8490  111.0750 S   0  0  0  0  0  0  0  0  0  0  0  0
  108.1180  110.8210  115.2030 C   0  0  0  0  0  0  0  0  0  0  0  0
  108.7940  110.4820  116.4060 C   0  0  0  0  0  0  0  0  0  0  0  0
  107.9870  109.9520  117.3460 C   0  0  0  0  0  0  0  0  0  0  0  0
  106.3660  109.8970  116.8430 S   0  0  0  0  0  0  0  0  0  0  0  0
  139.0110  120.9620  132.8620 C   0  0  0  0  0  0  0  0  0  0  0  0
  139.3250  121.4920  134.1010 C   0  0  0  0  0  0  0  0  0  0  0  0
  139.9680  122.7130  134.1630 C   0  0  0  0  0  0  0  0  0  0  0  0
  140.2980  123.4170  133.0170 C   0  0  0  0  0  0  0  0  0  0  0  0
  139.9680  122.8630  131.7900 C   0  0  0  0  0  0  0  0  0  0  0  0
  139.3260  121.6430  131.7000 C   0  0  0  0  0  0  0  0  0  0  0  0
  141.0020  124.7570  133.1050 C   0  0  0  0  0  0  0  0  0  0  0  0
  140.9220  125.5830  131.8490 C   0  0  0  0  0  0  0  0  0  0  0  0
  138.9650  118.3890  133.9390 C   0  0  0  0  0  0  0  0  0  0  0  0
  140.0180  117.5740  133.7670 C   0  0  0  0  0  0  0  0  0  0  0  0
  141.7610  116.4400  132.8170 C   0  0  0  0  0  0  0  0  0  0  0  0
  142.0080  115.8340  134.0680 C   0  0  0  0  0  0  0  0  0  0  0  0
  141.2430  116.1140  135.1690 C   0  0  0  0  0  0  0  0  0  0  0  0
  142.7200  114.6000  136.0440 C   0  0  0  0  0  0  0  0  0  0  0  0
  141.6590  115.3990  136.3190 C   0  0  0  0  0  0  0  0  0  0  0  0
  142.4540  116.8820  130.5380 C   0  0  0  0  0  0  0  0  0  0  0  0
  141.6770  116.1090  129.5240 C   0  0  0  0  0  0  0  0  0  0  0  0
  140.2240  117.0160  134.9800 N   0  0  0  0  0  0  0  0  0  0  0  0
  139.3210  117.4670  135.8840 N   0  0  0  0  0  0  0  0  0  0  0  0
  138.5470  118.3130  135.2320 N   0  0  0  0  0  0  0  0  0  0  0  0
  140.7400  117.3370  132.6530 N   0  0  0  0  0  0  0  0  0  0  0  0
  142.5190  116.1520  131.7740 N   0  0  0  0  0  0  0  0  0  0  0  0
  136.8330  119.6040  133.2130 O   0  0  0  0  0  0  0  0  0  0  0  0
  138.4260  118.8440  131.4730 O   0  0  0  0  0  0  0  0  0  0  0  0
  138.1820  119.4080  132.7690 S   0  0  0  0  0  0  0  0  0  0  0  0
  143.2440  114.7000  134.4230 S   0  0  0  0  0  0  0  0  0  0  0  0
  142.1580  115.5430  128.3450 C   0  0  0  0  0  0  0  0  0  0  0  0
  141.0760  115.1850  127.5030 C   0  0  0  0  0  0  0  0  0  0  0  0
  139.8760  115.2740  128.1060 C   0  0  0  0  0  0  0  0  0  0  0  0
  140.0060  115.8240  129.7060 S   0  0  0  0  0  0  0  0  0  0  0  0
  137.6060  113.5370  110.7200 C   0  0  0  0  0  0  0  0  0  0  0  0
  136.9140  113.0840  109.6100 C   0  0  0  0  0  0  0  0  0  0  0  0
  136.4610  111.7800  109.5910 C   0  0  0  0  0  0  0  0  0  0  0  0
  136.6820  110.9230  110.6550 C   0  0  0  0  0  0  0  0  0  0  0  0
  137.3690  111.4070  111.7580 C   0  0  0  0  0  0  0  0  0  0  0  0
  137.8350  112.7070  111.8030 C   0  0  0  0  0  0  0  0  0  0  0  0
  136.1670  109.4990  110.6180 C   0  0  0  0  0  0  0  0  0  0  0  0
  134.6630  109.4490  110.6670 C   0  0  0  0  0  0  0  0  0  0  0  0
  139.7250  115.1860  109.9590 C   0  0  0  0  0  0  0  0  0  0  0  0
  140.9440  115.0560  110.5110 C   0  0  0  0  0  0  0  0  0  0  0  0
  142.6300  114.7910  112.0410 C   0  0  0  0  0  0  0  0  0  0  0  0
  143.5600  114.8460  110.9770 C   0  0  0  0  0  0  0  0  0  0  0  0
  143.1600  115.0080  109.6730 C   0  0  0  0  0  0  0  0  0  0  0  0
  145.4260  114.8040  109.4100 C   0  0  0  0  0  0  0  0  0  0  0  0
  144.2530  115.0350  108.7680 C   0  0  0  0  0  0  0  0  0  0  0  0
  142.2240  114.0590  114.3220 C   0  0  0  0  0  0  0  0  0  0  0  0
  141.9120  115.0940  115.3530 C   0  0  0  0  0  0  0  0  0  0  0  0
  141.8040  115.1140  109.4670 N   0  0  0  0  0  0  0  0  0  0  0  0
  141.1350  115.2790  108.2940 N   0  0  0  0  0  0  0  0  0  0  0  0
  139.8540  115.3240  108.6110 N   0  0  0  0  0  0  0  0  0  0  0  0
  141.2800  114.8990  111.8100 N   0  0  0  0  0  0  0  0  0  0  0  0
  143.0490  114.6320  113.2890 N   0  0  0  0  0  0  0  0  0  0  0  0
  137.2900  115.9760  109.9310 O   0  0  0  0  0  0  0  0  0  0  0  0
  138.3940  115.5790  112.1210 O   0  0  0  0  0  0  0  0  0  0  0  0
  138.1780  115.2030  110.7520 S   0  0  0  0  0  0  0  0  0  0  0  0
  145.2670  114.7260  111.1080 S   0  0  0  0  0  0  0  0  0  0  0  0
  141.0050  116.1500  115.2410 C   0  0  0  0  0  0  0  0  0  0  0  0
  140.9610  116.9030  116.4450 C   0  0  0  0  0  0  0  0  0  0  0  0
  141.8250  116.4700  117.3840 C   0  0  0  0  0  0  0  0  0  0  0  0
  142.6850  115.0960  116.8790 S   0  0  0  0  0  0  0  0  0  0  0  0
  1  2  2  0  0  0  0
  2  3  1  0  0  0  0
  3  4  2  0  0  0  0
  4  5  1  0  0  0  0
  1  6  1  0  0  0  0
  5  6  2  0  0  0  0
  4  7  1  0  0  0  0
  7  8  1  0  0  0  0
  9 10  2  0  0  0  0
 11 12  1  0  0  0  0
 12 13  2  0  0  0  0
 13 15  1  0  0  0  0
 14 15  2  0  0  0  0
 16 17  1  0  0  0  0
 10 18  1  0  0  0  0
 13 18  1  0  0  0  0
 18 19  1  0  0  0  0
  9 20  1  0  0  0  0
 19 20  2  0  0  0  0
 10 21  1  0  0  0  0
 11 21  2  0  0  0  0
 11 22  1  0  0  0  0
 16 22  1  0  0  0  0
  1 25  1  0  0  0  0
  9 25  1  0  0  0  0
 23 25  2  0  0  0  0
 24 25  2  0  0  0  0
 12 26  1  0  0  0  0
 14 26  1  0  0  0  0
 17 27  2  0  0  0  0
 27 28  1  0  0  0  0
 28 29  2  0  0  0  0
 17 30  1  0  0  0  0
 29 30  1  0  0  0  0
 31 32  2  0  0  0  0
 32 33  1  0  0  0  0
 33 34  2  0  0  0  0
 34 35  1  0  0  0  0
 31 36  1  0  0  0  0
 35 36  2  0  0  0  0
 34 37  1  0  0  0  0
 37 38  1  0  0  0  0
 39 40  2  0  0  0  0
 41 42  1  0  0  0  0
 42 43  2  0  0  0  0
 43 45  1  0  0  0  0
 44 45  2  0  0  0  0
 46 47  1  0  0  0  0
 40 48  1  0  0  0  0
 43 48  1  0  0  0  0
 48 49  1  0  0  0  0
 39 50  1  0  0  0  0
 49 50  2  0  0  0  0
 40 51  1  0  0  0  0
 41 51  2  0  0  0  0
 41 52  1  0  0  0  0
 46 52  1  0  0  0  0
 31 55  1  0  0  0  0
 39 55  1  0  0  0  0
 53 55  2  0  0  0  0
 54 55  2  0  0  0  0
 42 56  1  0  0  0  0
 44 56  1  0  0  0  0
 47 57  2  0  0  0  0
 57 58  1  0  0  0  0
 58 59  2  0  0  0  0
 47 60  1  0  0  0  0
 59 60  1  0  0  0  0
 61 62  2  0  0  0  0
 62 63  1  0  0  0  0
 63 64  2  0  0  0  0
 64 65  1  0  0  0  0
 61 66  1  0  0  0  0
 65 66  2  0  0  0  0
 64 67  1  0  0  0  0
 67 68  1  0  0  0  0
 69 70  2  0  0  0  0
 71 72  1  0  0  0  0
 72 73  2  0  0  0  0
 73 75  1  0  0  0  0
 74 75  2  0  0  0  0
 76 77  1  0  0  0  0
 70 78  1  0  0  0  0
 73 78  1  0  0  0  0
 78 79  1  0  0  0  0
 69 80  1  0  0  0  0
 79 80  2  0  0  0  0
 70 81  1  0  0  0  0
 71 81  2  0  0  0  0
 71 82  1  0  0  0  0
 76 82  1  0  0  0  0
 61 85  1  0  0  0  0
 69 85  1  0  0  0  0
 83 85  2  0  0  0  0
 84 85  2  0  0  0  0
 72 86  1  0  0  0  0
 74 86  1  0  0  0  0
 77 87  2  0  0  0  0
 87 88  1  0  0  0  0
 88 89  2  0  0  0  0
 77 90  1  0  0  0  0
 89 90  1  0  0  0  0
 91 92  2  0  0  0  0
 92 93  1  0  0  0  0
 93 94  2  0  0  0  0
 94 95  1  0  0  0  0
 91 96  1  0  0  0  0
 95 96  2  0  0  0  0
 94 97  1  0  0  0  0
 97 98  1  0  0  0  0
 99100  2  0  0  0  0
101102  1  0  0  0  0
102103  2  0  0  0  0
103105  1  0  0  0  0
104105  2  0  0  0  0
106107  1  0  0  0  0
100108  1  0  0  0  0
103108  1  0  0  0  0
108109  1  0  0  0  0
 99110  1  0  0  0  0
109110  2  0  0  0  0
100111  1  0  0  0  0
101111  2  0  0  0  0
101112  1  0  0  0  0
106112  1  0  0  0  0
 91115  1  0  0  0  0
 99115  1  0  0  0  0
113115  2  0  0  0  0
114115  2  0  0  0  0
102116  1  0  0  0  0
104116  1  0  0  0  0
107117  2  0  0  0  0
117118  1  0  0  0  0
118119  2  0  0  0  0
107120  1  0  0  0  0
119120  1  0  0  0  0
121122  2  0  0  0  0
122123  1  0  0  0  0
123124  2  0  0  0  0
124125  1  0  0  0  0
121126  1  0  0  0  0
125126  2  0  0  0  0
124127  1  0  0  0  0
127128  1  0  0  0  0
129130  2  0  0  0  0
131132  1  0  0  0  0
132133  2  0  0  0  0
133135  1  0  0  0  0
134135  2  0  0  0  0
136137  1  0  0  0  0
130138  1  0  0  0  0
133138  1  0  0  0  0
138139  1  0  0  0  0
129140  1  0  0  0  0
139140  2  0  0  0  0
130141  1  0  0  0  0
131141  2  0  0  0  0
131142  1  0  0  0  0
136142  1  0  0  0  0
121145  1  0  0  0  0
129145  1  0  0  0  0
143145  2  0  0  0  0
144145  2  0  0  0  0
132146  1  0  0  0  0
134146  1  0  0  0  0
137147  2  0  0  0  0
147148  1  0  0  0  0
148149  2  0  0  0  0
137150  1  0  0  0  0
149150  1  0  0  0  0
151152  2  0  0  0  0
152153  1  0  0  0  0
153154  2  0  0  0  0
154155  1  0  0  0  0
151156  1  0  0  0  0
155156  2  0  0  0  0
154157  1  0  0  0  0
157158  1  0  0  0  0
159160  2  0  0  0  0
161162  1  0  0  0  0
162163  2  0  0  0  0
163165  1  0  0  0  0
164165  2  0  0  0  0
166167  1  0  0  0  0
160168  1  0  0  0  0
163168  1  0  0  0  0
168169  1  0  0  0  0
159170  1  0  0  0  0
169170  2  0  0  0  0
160171  1  0  0  0  0
161171  2  0  0  0  0
161172  1  0  0  0  0
166172  1  0  0  0  0
151175  1  0  0  0  0
159175  1  0  0  0  0
173175  2  0  0  0  0
174175  2  0  0  0  0
162176  1  0  0  0  0
164176  1  0  0  0  0
167177  2  0  0  0  0
177178  1  0  0  0  0
178179  2  0  0  0  0
167180  1  0  0  0  0
179180  1  0  0  0  0
M  END
$$$$
