8K2W
  PyMOL3.1          3D                             0

 44 48  0  0  0  0  0  0  0  0999 V2000
  111.9910  106.9870  132.9050 C   0  0  0  0  0  0  0  0  0  0  0  0
  111.3630  112.8430  138.0290 N   0  0  0  0  0  0  0  0  0  0  0  0
  111.1700  108.8170  134.1530 O   0  0  0  0  0  0  0  0  0  0  0  0
  112.2750  107.9120  134.0470 C   0  0  0  0  0  0  0  0  0  0  0  0
  111.5140  115.7240  140.9450 N   0  0  0  0  0  0  0  0  0  0  0  0
  113.2720  113.6060  137.0340 O   0  0  0  0  0  0  0  0  0  0  0  0
  111.2220  109.7950  135.1100 C   0  0  0  0  0  0  0  0  0  0  0  0
  110.5170  113.8650  139.9840 N   0  0  0  0  0  0  0  0  0  0  0  0
  106.2940  111.9810  137.2080 O   0  0  0  0  0  0  0  0  0  0  0  0
  112.3140  109.8970  135.9560 C   0  0  0  0  0  0  0  0  0  0  0  0
  108.0300  112.4220  138.5710 N   0  0  0  0  0  0  0  0  0  0  0  0
  104.7020  107.1790  133.8620 O   0  0  0  0  0  0  0  0  0  0  0  0
  112.3590  110.9020  136.9050 C   0  0  0  0  0  0  0  0  0  0  0  0
  108.7980  115.4330  135.6980 N   0  0  0  0  0  0  0  0  0  0  0  0
  111.2860  111.7610  137.0610 C   0  0  0  0  0  0  0  0  0  0  0  0
  110.2240  111.6950  136.1770 C   0  0  0  0  0  0  0  0  0  0  0  0
  110.1800  110.7000  135.2180 C   0  0  0  0  0  0  0  0  0  0  0  0
  112.4750  113.7050  137.9520 C   0  0  0  0  0  0  0  0  0  0  0  0
  112.5310  114.7580  138.9540 C   0  0  0  0  0  0  0  0  0  0  0  0
  111.5230  114.7820  139.9580 C   0  0  0  0  0  0  0  0  0  0  0  0
  112.4810  116.6220  140.9420 C   0  0  0  0  0  0  0  0  0  0  0  0
  113.5200  116.6800  139.9960 C   0  0  0  0  0  0  0  0  0  0  0  0
  113.5410  115.7500  139.0070 C   0  0  0  0  0  0  0  0  0  0  0  0
  110.4430  112.9460  139.0750 C   0  0  0  0  0  0  0  0  0  0  0  0
  109.2880  111.9690  139.2150 C   0  0  0  0  0  0  0  0  0  0  0  0
  109.0450  111.6520  140.6840 C   0  0  0  0  0  0  0  0  0  0  0  0
  107.5460  113.7860  138.8470 C   0  0  0  0  0  0  0  0  0  0  0  0
  108.0950  114.8260  137.9120 C   0  0  0  0  0  0  0  0  0  0  0  0
  108.3090  114.5480  136.5810 C   0  0  0  0  0  0  0  0  0  0  0  0
  109.0910  116.6520  136.1590 C   0  0  0  0  0  0  0  0  0  0  0  0
  108.9150  117.0220  137.4620 C   0  0  0  0  0  0  0  0  0  0  0  0
  108.4120  116.0970  138.3450 C   0  0  0  0  0  0  0  0  0  0  0  0
  107.2890  111.5760  137.8100 C   0  0  0  0  0  0  0  0  0  0  0  0
  107.6780  110.1140  137.7890 C   0  0  0  0  0  0  0  0  0  0  0  0
  106.8840  109.3400  136.7630 C   0  0  0  0  0  0  0  0  0  0  0  0
  105.5880  108.9190  137.0230 C   0  0  0  0  0  0  0  0  0  0  0  0
  104.8550  108.2120  136.0840 C   0  0  0  0  0  0  0  0  0  0  0  0
  105.4210  107.9010  134.8560 C   0  0  0  0  0  0  0  0  0  0  0  0
  106.7150  108.3110  134.5800 C   0  0  0  0  0  0  0  0  0  0  0  0
  107.4300  109.0190  135.5300 C   0  0  0  0  0  0  0  0  0  0  0  0
  103.4430  106.8160  134.0970 C   0  0  0  0  0  0  0  0  0  0  0  0
  103.3310  106.0050  135.1310 F   0  0  0  0  0  0  0  0  0  0  0  0
  102.9500  106.1730  133.0580 F   0  0  0  0  0  0  0  0  0  0  0  0
  102.6500  107.8480  134.3120 F   0  0  0  0  0  0  0  0  0  0  0  0
  1  4  1  0  0  0  0
  3  4  1  0  0  0  0
  3  7  1  0  0  0  0
  7 10  1  0  0  0  0
 10 13  2  0  0  0  0
  2 15  1  0  0  0  0
 13 15  1  0  0  0  0
 15 16  2  0  0  0  0
  7 17  2  0  0  0  0
 16 17  1  0  0  0  0
  2 18  1  0  0  0  0
  6 18  2  0  0  0  0
 18 19  1  0  0  0  0
  5 20  2  0  0  0  0
  8 20  1  0  0  0  0
 19 20  1  0  0  0  0
  5 21  1  0  0  0  0
 21 22  2  0  0  0  0
 19 23  2  0  0  0  0
 22 23  1  0  0  0  0
  2 24  1  0  0  0  0
  8 24  2  0  0  0  0
 11 25  1  0  0  0  0
 24 25  1  0  0  0  0
 25 26  1  0  0  0  0
 11 27  1  0  0  0  0
 27 28  1  0  0  0  0
 14 29  1  0  0  0  0
 28 29  2  0  0  0  0
 14 30  2  0  0  0  0
 30 31  1  0  0  0  0
 28 32  1  0  0  0  0
 31 32  2  0  0  0  0
  9 33  2  0  0  0  0
 11 33  1  0  0  0  0
 33 34  1  0  0  0  0
 34 35  1  0  0  0  0
 35 36  1  0  0  0  0
 36 37  2  0  0  0  0
 12 38  1  0  0  0  0
 37 38  1  0  0  0  0
 38 39  2  0  0  0  0
 35 40  2  0  0  0  0
 39 40  1  0  0  0  0
 12 41  1  0  0  0  0
 41 42  1  0  0  0  0
 41 43  1  0  0  0  0
 41 44  1  0  0  0  0
M  END
$$$$
