7U4O
  PyMOL3.1          3D                             0

 24 26  0  0  0  0  0  0  0  0999 V2000
  -30.7981   32.3301  -37.9286 C   0  0  0  0  0  0  0  0  0  0  0  0
  -30.6011   31.2871  -36.8369 C   0  0  0  0  0  0  0  0  0  0  0  0
  -29.4600   31.5555  -35.8128 C   0  0  0  0  0  0  0  0  0  0  0  0
  -28.6776   30.3808  -35.2340 C   0  0  0  0  0  0  0  0  0  0  0  0
  -28.9015   28.7586  -35.8204 S   0  0  0  0  0  0  0  0  0  0  0  0
  -27.7528   28.0245  -34.7564 C   0  0  0  0  0  0  0  0  0  0  0  0
  -27.1903   28.9499  -33.9544 C   0  0  0  0  0  0  0  0  0  0  0  0
  -26.1640   28.7476  -32.9071 C   0  0  0  0  0  0  0  0  0  0  0  0
  -26.0718   29.8466  -31.8055 C   0  0  0  0  0  0  0  0  0  0  0  0
  -26.4014   31.2268  -32.2393 C   0  0  0  0  0  0  0  0  0  0  0  0
  -25.9964   32.4129  -31.5945 C   0  0  0  0  0  0  0  0  0  0  0  0
  -26.3032   33.6725  -31.9986 N   0  0  0  0  0  0  0  0  0  0  0  0
  -27.0627   33.7871  -33.1157 C   0  0  0  0  0  0  0  0  0  0  0  0
  -27.5311   35.4626  -33.7306 S   0  0  0  0  0  0  0  0  0  0  0  0
  -28.8472   35.4832  -35.1439 C   0  0  0  0  0  0  0  0  0  0  0  0
  -30.3068   35.8099  -34.7598 C   0  0  0  0  0  0  0  0  0  0  0  0
  -30.7449   35.4356  -33.6967 O   0  0  0  0  0  0  0  0  0  0  0  0
  -31.2620   36.6238  -35.6954 C   0  0  0  0  0  0  0  0  0  0  0  0
  -30.4596   37.3638  -36.7896 C   0  0  0  0  0  0  0  0  0  0  0  0
  -31.9996   37.6615  -34.8540 C   0  0  0  0  0  0  0  0  0  0  0  0
  -32.2558   35.6838  -36.3616 C   0  0  0  0  0  0  0  0  0  0  0  0
  -27.5165   32.7094  -33.8285 N   0  0  0  0  0  0  0  0  0  0  0  0
  -27.1948   31.4470  -33.4084 C   0  0  0  0  0  0  0  0  0  0  0  0
  -27.7217   30.3101  -34.2289 C   0  0  0  0  0  0  0  0  0  0  0  0
  1  2  1  0  0  0  0
  2  3  1  0  0  0  0
  3  4  1  0  0  0  0
  4  5  1  0  0  0  0
  5  6  1  0  0  0  0
  6  7  2  0  0  0  0
  7  8  1  0  0  0  0
  8  9  1  0  0  0  0
  9 10  1  0  0  0  0
 10 11  1  0  0  0  0
 11 12  2  0  0  0  0
 12 13  1  0  0  0  0
 13 14  1  0  0  0  0
 14 15  1  0  0  0  0
 15 16  1  0  0  0  0
 16 17  2  0  0  0  0
 16 18  1  0  0  0  0
 18 19  1  0  0  0  0
 18 20  1  0  0  0  0
 18 21  1  0  0  0  0
 13 22  2  0  0  0  0
 10 23  2  0  0  0  0
 22 23  1  0  0  0  0
  4 24  2  0  0  0  0
  7 24  1  0  0  0  0
 23 24  1  0  0  0  0
M  END
$$$$
