7U4O
  PyMOL3.1          3D                             0

 24 26  0  0  0  0  0  0  0  0999 V2000
    1.7084   14.2632  -34.3570 C   0  0  0  0  0  0  0  0  0  0  0  0
    0.6181   13.4531  -35.0519 C   0  0  0  0  0  0  0  0  0  0  0  0
    0.0194   12.2478  -34.2646 C   0  0  0  0  0  0  0  0  0  0  0  0
   -0.3146   10.9449  -34.9927 C   0  0  0  0  0  0  0  0  0  0  0  0
    0.2756   10.6116  -36.6068 S   0  0  0  0  0  0  0  0  0  0  0  0
   -0.4717    9.0619  -36.7435 C   0  0  0  0  0  0  0  0  0  0  0  0
   -1.1648    8.7592  -35.6259 C   0  0  0  0  0  0  0  0  0  0  0  0
   -1.9425    7.5226  -35.3434 C   0  0  0  0  0  0  0  0  0  0  0  0
   -2.9908    7.5887  -34.1896 C   0  0  0  0  0  0  0  0  0  0  0  0
   -2.7175    8.5747  -33.1040 C   0  0  0  0  0  0  0  0  0  0  0  0
   -3.2964    8.5640  -31.8167 C   0  0  0  0  0  0  0  0  0  0  0  0
   -3.0493    9.4631  -30.8249 N   0  0  0  0  0  0  0  0  0  0  0  0
   -2.1683   10.4458  -31.1110 C   0  0  0  0  0  0  0  0  0  0  0  0
   -1.7814   11.7008  -29.8373 S   0  0  0  0  0  0  0  0  0  0  0  0
   -0.7531   13.1850  -30.4587 C   0  0  0  0  0  0  0  0  0  0  0  0
   -1.5177   14.4798  -30.7608 C   0  0  0  0  0  0  0  0  0  0  0  0
   -2.6484   14.4204  -31.1858 O   0  0  0  0  0  0  0  0  0  0  0  0
   -0.8882   15.8811  -30.5234 C   0  0  0  0  0  0  0  0  0  0  0  0
   -1.6003   16.5718  -29.3439 C   0  0  0  0  0  0  0  0  0  0  0  0
   -1.0615   16.7440  -31.7699 C   0  0  0  0  0  0  0  0  0  0  0  0
    0.5910   15.7280  -30.1989 C   0  0  0  0  0  0  0  0  0  0  0  0
   -1.5393   10.5675  -32.3241 N   0  0  0  0  0  0  0  0  0  0  0  0
   -1.8002    9.6544  -33.3116 C   0  0  0  0  0  0  0  0  0  0  0  0
   -1.0765    9.8444  -34.6148 C   0  0  0  0  0  0  0  0  0  0  0  0
  1  2  1  0  0  0  0
  2  3  1  0  0  0  0
  3  4  1  0  0  0  0
  4  5  1  0  0  0  0
  5  6  1  0  0  0  0
  6  7  2  0  0  0  0
  7  8  1  0  0  0  0
  8  9  1  0  0  0  0
  9 10  1  0  0  0  0
 10 11  1  0  0  0  0
 11 12  2  0  0  0  0
 12 13  1  0  0  0  0
 13 14  1  0  0  0  0
 14 15  1  0  0  0  0
 15 16  1  0  0  0  0
 16 17  2  0  0  0  0
 16 18  1  0  0  0  0
 18 19  1  0  0  0  0
 18 20  1  0  0  0  0
 18 21  1  0  0  0  0
 13 22  2  0  0  0  0
 10 23  2  0  0  0  0
 22 23  1  0  0  0  0
  4 24  2  0  0  0  0
  7 24  1  0  0  0  0
 23 24  1  0  0  0  0
M  END
$$$$
