8R4Q
  PyMOL3.1          3D                             0

216234  0  0  0  0  0  0  0  0999 V2000
  -16.4380    7.4650  -89.9190 C   0  0  0  0  0  0  0  0  0  0  0  0
  -12.8750    4.1890  -87.6300 C   0  0  0  0  0  0  0  0  0  0  0  0
  -16.8250    5.0220  -97.1130 C   0  0  0  0  0  0  0  0  0  0  0  0
  -14.9020    4.4870  -95.8160 C   0  0  0  0  0  0  0  0  0  0  0  0
  -20.6150    6.6660  -97.2490 C   0  0  0  0  0  0  0  0  0  0  0  0
  -19.4760    4.4470  -96.0210 C   0  0  0  0  0  0  0  0  0  0  0  0
  -13.9990    4.7910  -92.3770 C   0  0  0  0  0  0  0  0  0  0  0  0
  -16.5990    5.7370  -92.2730 C   0  0  0  0  0  0  0  0  0  0  0  0
  -11.9060    4.3830  -88.7670 C   0  0  0  0  0  0  0  0  0  0  0  0
  -12.6750    4.3100  -90.0500 C   0  0  0  0  0  0  0  0  0  0  0  0
  -11.7250    3.5000  -82.3290 C   0  0  0  0  0  0  0  0  0  0  0  0
  -11.6290    4.8860  -85.7480 C   0  0  0  0  0  0  0  0  0  0  0  0
  -13.2390    2.9870  -85.6940 C   0  0  0  0  0  0  0  0  0  0  0  0
  -11.1080    4.5120  -84.3500 C   0  0  0  0  0  0  0  0  0  0  0  0
  -12.9180    2.7930  -84.2030 C   0  0  0  0  0  0  0  0  0  0  0  0
  -20.3850    4.2580  -97.0610 C   0  0  0  0  0  0  0  0  0  0  0  0
  -20.9640    5.3810  -97.6650 C   0  0  0  0  0  0  0  0  0  0  0  0
  -19.6780    6.8260  -96.2320 C   0  0  0  0  0  0  0  0  0  0  0  0
  -17.3260    5.1860  -98.1450 N   0  0  0  0  0  0  0  0  0  0  0  0
  -14.1670    4.4050  -94.6880 N   0  0  0  0  0  0  0  0  0  0  0  0
  -18.1530    5.8040  -94.5570 N   0  0  0  0  0  0  0  0  0  0  0  0
  -16.4050    6.0500  -89.9120 O   0  0  0  0  0  0  0  0  0  0  0  0
  -13.8110    5.1710  -89.9570 O   0  0  0  0  0  0  0  0  0  0  0  0
  -16.2070    4.9260  -95.8460 C   0  0  0  0  0  0  0  0  0  0  0  0
  -19.0890    5.7250  -95.6060 C   0  0  0  0  0  0  0  0  0  0  0  0
  -15.8360    5.6770  -91.1130 C   0  0  0  0  0  0  0  0  0  0  0  0
  -14.5320    5.1980  -91.1500 C   0  0  0  0  0  0  0  0  0  0  0  0
  -16.8200    5.3460  -94.6660 C   0  0  0  0  0  0  0  0  0  0  0  0
  -14.7280    4.8500  -93.5530 C   0  0  0  0  0  0  0  0  0  0  0  0
  -16.0450    5.3480  -93.5010 C   0  0  0  0  0  0  0  0  0  0  0  0
  -12.1880    3.7050  -86.4420 N   0  0  0  0  0  0  0  0  0  0  0  0
  -11.5880    3.2430  -83.7550 N   0  0  0  0  0  0  0  0  0  0  0  0
  -22.1130    5.2180  -98.9470 Cl  0  0  0  0  0  0  0  0  0  0  0  0
  -19.2890    8.4150  -95.7370 Cl  0  0  0  0  0  0  0  0  0  0  0  0
  -19.6260    2.1530  -97.6120 C   0  0  0  0  0  0  0  0  0  0  0  0
  -20.7620    2.9820  -97.4720 O   0  0  0  0  0  0  0  0  0  0  0  0
    8.0680   70.5890  -67.6410 C   0  0  0  0  0  0  0  0  0  0  0  0
   11.6910   73.4040  -64.9330 C   0  0  0  0  0  0  0  0  0  0  0  0
    9.0910   63.3750  -65.4710 C   0  0  0  0  0  0  0  0  0  0  0  0
   10.8440   64.9460  -65.1220 C   0  0  0  0  0  0  0  0  0  0  0  0
    5.1880   62.6910  -66.6460 C   0  0  0  0  0  0  0  0  0  0  0  0
    6.4110   64.0520  -64.5460 C   0  0  0  0  0  0  0  0  0  0  0  0
   11.1850   68.4970  -65.4330 C   0  0  0  0  0  0  0  0  0  0  0  0
    8.4980   68.2190  -66.0030 C   0  0  0  0  0  0  0  0  0  0  0  0
   12.7580   72.3980  -65.2790 C   0  0  0  0  0  0  0  0  0  0  0  0
   12.2050   71.0090  -65.1070 C   0  0  0  0  0  0  0  0  0  0  0  0
   12.2300   78.8070  -64.1190 C   0  0  0  0  0  0  0  0  0  0  0  0
   12.6100   75.4580  -65.6920 C   0  0  0  0  0  0  0  0  0  0  0  0
   11.2340   75.2670  -63.6220 C   0  0  0  0  0  0  0  0  0  0  0  0
   12.8970   76.9370  -65.3550 C   0  0  0  0  0  0  0  0  0  0  0  0
   11.3630   76.7900  -63.4170 C   0  0  0  0  0  0  0  0  0  0  0  0
    5.7040   62.8780  -64.2900 C   0  0  0  0  0  0  0  0  0  0  0  0
    5.0800   62.2120  -65.3440 C   0  0  0  0  0  0  0  0  0  0  0  0
    5.9250   63.8540  -66.8810 C   0  0  0  0  0  0  0  0  0  0  0  0
    8.7310   62.2800  -65.6050 N   0  0  0  0  0  0  0  0  0  0  0  0
   11.4090   66.1710  -65.0960 N   0  0  0  0  0  0  0  0  0  0  0  0
    7.2980   65.7200  -65.9730 N   0  0  0  0  0  0  0  0  0  0  0  0
    8.3090   70.5890  -66.2500 O   0  0  0  0  0  0  0  0  0  0  0  0
   10.9400   70.9340  -65.7520 O   0  0  0  0  0  0  0  0  0  0  0  0
    9.5150   64.7230  -65.4030 C   0  0  0  0  0  0  0  0  0  0  0  0
    6.5510   64.5480  -65.8410 C   0  0  0  0  0  0  0  0  0  0  0  0
    9.0830   69.4800  -66.0090 C   0  0  0  0  0  0  0  0  0  0  0  0
   10.4300   69.6390  -65.7220 C   0  0  0  0  0  0  0  0  0  0  0  0
    8.6810   65.8030  -65.6910 C   0  0  0  0  0  0  0  0  0  0  0  0
   10.6360   67.2190  -65.4250 C   0  0  0  0  0  0  0  0  0  0  0  0
    9.2690   67.0750  -65.7390 C   0  0  0  0  0  0  0  0  0  0  0  0
   12.2770   74.6660  -64.4890 N   0  0  0  0  0  0  0  0  0  0  0  0
   12.5680   77.4040  -63.9900 N   0  0  0  0  0  0  0  0  0  0  0  0
    4.1620   60.7910  -65.0620 Cl  0  0  0  0  0  0  0  0  0  0  0  0
    6.0270   64.4130  -68.4930 Cl  0  0  0  0  0  0  0  0  0  0  0  0
    6.7940   62.4280  -62.3190 C   0  0  0  0  0  0  0  0  0  0  0  0
    5.5550   62.3820  -63.0070 O   0  0  0  0  0  0  0  0  0  0  0  0
  -16.6110   37.3480  -32.1470 C   0  0  0  0  0  0  0  0  0  0  0  0
  -11.9380   35.4860  -33.8720 C   0  0  0  0  0  0  0  0  0  0  0  0
  -15.4670   44.8010  -31.0460 C   0  0  0  0  0  0  0  0  0  0  0  0
  -13.5800   43.3330  -31.1120 C   0  0  0  0  0  0  0  0  0  0  0  0
  -19.5230   45.3350  -31.5490 C   0  0  0  0  0  0  0  0  0  0  0  0
  -17.4130   44.6700  -33.2200 C   0  0  0  0  0  0  0  0  0  0  0  0
  -13.0670   39.8850  -31.9360 C   0  0  0  0  0  0  0  0  0  0  0  0
  -15.7790   40.1230  -32.4960 C   0  0  0  0  0  0  0  0  0  0  0  0
  -11.1900   36.2170  -32.7850 C   0  0  0  0  0  0  0  0  0  0  0  0
  -11.7690   37.5960  -32.6610 C   0  0  0  0  0  0  0  0  0  0  0  0
  -10.5270   30.7050  -36.2020 C   0  0  0  0  0  0  0  0  0  0  0  0
  -11.1150   33.2600  -33.5640 C   0  0  0  0  0  0  0  0  0  0  0  0
  -11.7530   34.2140  -35.7800 C   0  0  0  0  0  0  0  0  0  0  0  0
  -10.4560   32.0450  -34.2510 C   0  0  0  0  0  0  0  0  0  0  0  0
  -11.4650   32.8230  -36.3840 C   0  0  0  0  0  0  0  0  0  0  0  0
  -18.0520   45.9010  -33.3580 C   0  0  0  0  0  0  0  0  0  0  0  0
  -19.1190   46.2320  -32.5310 C   0  0  0  0  0  0  0  0  0  0  0  0
  -18.8530   44.1230  -31.3990 C   0  0  0  0  0  0  0  0  0  0  0  0
  -15.9490   45.8080  -30.7330 N   0  0  0  0  0  0  0  0  0  0  0  0
  -12.9460   42.1570  -31.3120 N   0  0  0  0  0  0  0  0  0  0  0  0
  -17.0660   42.5590  -32.1690 N   0  0  0  0  0  0  0  0  0  0  0  0
  -15.8160   37.8310  -33.2080 O   0  0  0  0  0  0  0  0  0  0  0  0
  -13.1900   37.5130  -32.6170 O   0  0  0  0  0  0  0  0  0  0  0  0
  -14.9200   43.5360  -31.3650 C   0  0  0  0  0  0  0  0  0  0  0  0
  -17.7830   43.7700  -32.2220 C   0  0  0  0  0  0  0  0  0  0  0  0
  -15.1250   38.9050  -32.6890 C   0  0  0  0  0  0  0  0  0  0  0  0
  -13.7680   38.7690  -32.4120 C   0  0  0  0  0  0  0  0  0  0  0  0
  -15.6930   42.4770  -31.8440 C   0  0  0  0  0  0  0  0  0  0  0  0
  -13.6850   41.1130  -31.7310 C   0  0  0  0  0  0  0  0  0  0  0  0
  -15.0710   41.2270  -31.9900 C   0  0  0  0  0  0  0  0  0  0  0  0
  -11.1250   34.4400  -34.4620 N   0  0  0  0  0  0  0  0  0  0  0  0
  -10.3780   32.0690  -35.7280 N   0  0  0  0  0  0  0  0  0  0  0  0
  -19.9220   47.7500  -32.7100 Cl  0  0  0  0  0  0  0  0  0  0  0  0
  -19.4010   43.0600  -30.1770 Cl  0  0  0  0  0  0  0  0  0  0  0  0
  -16.2710   46.9010  -34.4160 C   0  0  0  0  0  0  0  0  0  0  0  0
  -17.6860   46.8120  -34.3340 O   0  0  0  0  0  0  0  0  0  0  0  0
  -50.3200   82.6430  -75.5310 C   0  0  0  0  0  0  0  0  0  0  0  0
  -55.3190   83.4450  -77.1050 C   0  0  0  0  0  0  0  0  0  0  0  0
  -47.1970   78.4220  -81.1030 C   0  0  0  0  0  0  0  0  0  0  0  0
  -49.5630   78.5030  -80.8770 C   0  0  0  0  0  0  0  0  0  0  0  0
  -43.5320   79.8700  -79.9200 C   0  0  0  0  0  0  0  0  0  0  0  0
  -45.7290   80.9460  -81.2150 C   0  0  0  0  0  0  0  0  0  0  0  0
  -51.8870   80.4120  -78.9390 C   0  0  0  0  0  0  0  0  0  0  0  0
  -49.5210   81.6280  -78.1780 C   0  0  0  0  0  0  0  0  0  0  0  0
  -55.4880   81.9860  -77.4320 C   0  0  0  0  0  0  0  0  0  0  0  0
  -54.2580   81.5210  -78.1650 C   0  0  0  0  0  0  0  0  0  0  0  0
  -59.1910   86.8840  -75.1760 C   0  0  0  0  0  0  0  0  0  0  0  0
  -57.0060   83.8220  -75.4880 C   0  0  0  0  0  0  0  0  0  0  0  0
  -56.3620   85.5040  -77.2450 C   0  0  0  0  0  0  0  0  0  0  0  0
  -57.9220   84.9080  -74.8750 C   0  0  0  0  0  0  0  0  0  0  0  0
  -57.4160   86.4780  -76.6730 C   0  0  0  0  0  0  0  0  0  0  0  0
  -44.5440   80.7460  -81.9240 C   0  0  0  0  0  0  0  0  0  0  0  0
  -43.4340   80.2160  -81.2670 C   0  0  0  0  0  0  0  0  0  0  0  0
  -44.7330   80.0440  -79.2390 C   0  0  0  0  0  0  0  0  0  0  0  0
  -46.2420   77.8870  -81.4870 N   0  0  0  0  0  0  0  0  0  0  0  0
  -50.7330   78.9530  -80.3840 N   0  0  0  0  0  0  0  0  0  0  0  0
  -47.1000   80.7910  -79.2660 N   0  0  0  0  0  0  0  0  0  0  0  0
  -50.7750   83.1400  -76.7790 O   0  0  0  0  0  0  0  0  0  0  0  0
  -53.1050   81.9560  -77.4510 O   0  0  0  0  0  0  0  0  0  0  0  0
  -48.3430   79.0480  -80.5530 C   0  0  0  0  0  0  0  0  0  0  0  0
  -45.8540   80.5750  -79.8760 C   0  0  0  0  0  0  0  0  0  0  0  0
  -50.7360   82.0670  -77.6520 C   0  0  0  0  0  0  0  0  0  0  0  0
  -51.9330   81.4690  -78.0240 C   0  0  0  0  0  0  0  0  0  0  0  0
  -48.2850   80.1150  -79.6550 C   0  0  0  0  0  0  0  0  0  0  0  0
  -50.6930   79.9430  -79.4770 C   0  0  0  0  0  0  0  0  0  0  0  0
  -49.4860   80.5430  -79.0710 C   0  0  0  0  0  0  0  0  0  0  0  0
  -56.6100   84.0810  -76.9020 N   0  0  0  0  0  0  0  0  0  0  0  0
  -58.4790   85.8410  -75.8780 N   0  0  0  0  0  0  0  0  0  0  0  0
  -41.9360   79.9640  -82.1010 Cl  0  0  0  0  0  0  0  0  0  0  0  0
  -44.7940   79.5890  -77.5900 Cl  0  0  0  0  0  0  0  0  0  0  0  0
  -45.5500   80.6820  -83.9960 C   0  0  0  0  0  0  0  0  0  0  0  0
  -44.4160   81.0970  -83.2590 O   0  0  0  0  0  0  0  0  0  0  0  0
    5.6580   21.3200  -18.7920 C   0  0  0  0  0  0  0  0  0  0  0  0
    0.6280   20.3020  -19.9390 C   0  0  0  0  0  0  0  0  0  0  0  0
    5.7890   22.9850  -11.3520 C   0  0  0  0  0  0  0  0  0  0  0  0
    3.7190   23.1330  -12.5490 C   0  0  0  0  0  0  0  0  0  0  0  0
    9.7560   21.9310  -11.3740 C   0  0  0  0  0  0  0  0  0  0  0  0
    7.3750   20.5270  -11.6080 C   0  0  0  0  0  0  0  0  0  0  0  0
    2.5870   22.2130  -15.8160 C   0  0  0  0  0  0  0  0  0  0  0  0
    5.1910   21.2480  -15.9050 C   0  0  0  0  0  0  0  0  0  0  0  0
    0.1220   21.4830  -19.1520 C   0  0  0  0  0  0  0  0  0  0  0  0
    0.8890   21.5840  -17.8620 C   0  0  0  0  0  0  0  0  0  0  0  0
   -1.6650   17.9510  -24.3250 C   0  0  0  0  0  0  0  0  0  0  0  0
   -0.3100   20.5730  -22.0640 C   0  0  0  0  0  0  0  0  0  0  0  0
   -0.0410   18.3490  -20.9890 C   0  0  0  0  0  0  0  0  0  0  0  0
   -1.1090   19.9180  -23.2150 C   0  0  0  0  0  0  0  0  0  0  0  0
   -0.6200   17.6970  -22.2580 C   0  0  0  0  0  0  0  0  0  0  0  0
    8.1600   20.3790  -10.4660 C   0  0  0  0  0  0  0  0  0  0  0  0
    9.3590   21.0750  -10.3510 C   0  0  0  0  0  0  0  0  0  0  0  0
    8.9460   22.0900  -12.4960 C   0  0  0  0  0  0  0  0  0  0  0  0
    6.4510   23.2860  -10.4480 N   0  0  0  0  0  0  0  0  0  0  0  0
    2.8920   22.9760  -13.6070 N   0  0  0  0  0  0  0  0  0  0  0  0
    6.8580   21.4880  -13.7190 N   0  0  0  0  0  0  0  0  0  0  0  0
    4.8030   20.4180  -18.1210 O   0  0  0  0  0  0  0  0  0  0  0  0
    2.2770   21.4020  -18.1230 O   0  0  0  0  0  0  0  0  0  0  0  0
    5.0230   22.6790  -12.5090 C   0  0  0  0  0  0  0  0  0  0  0  0
    7.7380   21.4020  -12.6270 C   0  0  0  0  0  0  0  0  0  0  0  0
    4.3500   21.0930  -17.0030 C   0  0  0  0  0  0  0  0  0  0  0  0
    3.0440   21.5690  -16.9710 C   0  0  0  0  0  0  0  0  0  0  0  0
    5.5510   22.0260  -13.6260 C   0  0  0  0  0  0  0  0  0  0  0  0
    3.4000   22.3850  -14.7050 C   0  0  0  0  0  0  0  0  0  0  0  0
    4.7320   21.9150  -14.7610 C   0  0  0  0  0  0  0  0  0  0  0  0
   -0.3950   19.7780  -20.8200 N   0  0  0  0  0  0  0  0  0  0  0  0
   -1.5850   18.5320  -22.9970 N   0  0  0  0  0  0  0  0  0  0  0  0
   10.3590   20.9140   -8.9570 Cl  0  0  0  0  0  0  0  0  0  0  0  0
    9.4910   23.1470  -13.7290 Cl  0  0  0  0  0  0  0  0  0  0  0  0
    6.4240   19.6380   -9.1560 C   0  0  0  0  0  0  0  0  0  0  0  0
    7.8040   19.5200   -9.4400 O   0  0  0  0  0  0  0  0  0  0  0  0
   13.5040   10.8470  -82.2260 C   0  0  0  0  0  0  0  0  0  0  0  0
    9.0860   13.3510  -80.6880 C   0  0  0  0  0  0  0  0  0  0  0  0
   16.8650   15.6410  -87.1240 C   0  0  0  0  0  0  0  0  0  0  0  0
   14.5470   15.8960  -86.6140 C   0  0  0  0  0  0  0  0  0  0  0  0
   20.4640   13.8060  -86.2840 C   0  0  0  0  0  0  0  0  0  0  0  0
   18.7490   15.4990  -84.9140 C   0  0  0  0  0  0  0  0  0  0  0  0
   12.2700   14.4840  -84.2790 C   0  0  0  0  0  0  0  0  0  0  0  0
   14.6250   13.2810  -83.4340 C   0  0  0  0  0  0  0  0  0  0  0  0
    8.7560   13.7440  -82.0990 C   0  0  0  0  0  0  0  0  0  0  0  0
   10.0130   14.1920  -82.7860 C   0  0  0  0  0  0  0  0  0  0  0  0
    6.3090   13.2140  -76.0130 C   0  0  0  0  0  0  0  0  0  0  0  0
    7.7140   14.5970  -79.2150 C   0  0  0  0  0  0  0  0  0  0  0  0
    7.8760   12.0350  -79.1890 C   0  0  0  0  0  0  0  0  0  0  0  0
    7.3580   14.4520  -77.7290 C   0  0  0  0  0  0  0  0  0  0  0  0
    7.0910   12.0160  -77.8650 C   0  0  0  0  0  0  0  0  0  0  0  0
   19.9920   15.9650  -85.3460 C   0  0  0  0  0  0  0  0  0  0  0  0
   20.8610   15.1170  -86.0160 C   0  0  0  0  0  0  0  0  0  0  0  0
   19.2000   13.3670  -85.8720 C   0  0  0  0  0  0  0  0  0  0  0  0
   17.7590   15.7950  -87.8460 N   0  0  0  0  0  0  0  0  0  0  0  0
   13.3940   15.6600  -85.9620 N   0  0  0  0  0  0  0  0  0  0  0  0
   17.0330   13.8520  -84.7180 N   0  0  0  0  0  0  0  0  0  0  0  0
   13.4020   12.1520  -81.6910 O   0  0  0  0  0  0  0  0  0  0  0  0
   11.0580   13.2650  -82.5070 O   0  0  0  0  0  0  0  0  0  0  0  0
   15.7650   15.3460  -86.2750 C   0  0  0  0  0  0  0  0  0  0  0  0
   18.3140   14.2010  -85.1850 C   0  0  0  0  0  0  0  0  0  0  0  0
   13.4180   12.9950  -82.7880 C   0  0  0  0  0  0  0  0  0  0  0  0
   12.2290   13.5930  -83.1980 C   0  0  0  0  0  0  0  0  0  0  0  0
   15.8470   14.4670  -85.1920 C   0  0  0  0  0  0  0  0  0  0  0  0
   13.4470   14.7760  -84.9570 C   0  0  0  0  0  0  0  0  0  0  0  0
   14.6440   14.1460  -84.5450 C   0  0  0  0  0  0  0  0  0  0  0  0
    7.8440   13.3160  -79.9350 N   0  0  0  0  0  0  0  0  0  0  0  0
    6.4850   13.2940  -77.4570 N   0  0  0  0  0  0  0  0  0  0  0  0
   22.3960   15.7570  -86.4720 Cl  0  0  0  0  0  0  0  0  0  0  0  0
   18.7640   11.7470  -86.2110 Cl  0  0  0  0  0  0  0  0  0  0  0  0
   19.3800   18.1620  -85.2710 C   0  0  0  0  0  0  0  0  0  0  0  0
   20.4510   17.2470  -85.1050 O   0  0  0  0  0  0  0  0  0  0  0  0
  2  9  1  0  0  0  0
  9 10  1  0  0  0  0
 12 14  1  0  0  0  0
 13 15  1  0  0  0  0
  6 16  1  0  0  0  0
  5 17  1  0  0  0  0
 16 17  2  0  0  0  0
  5 18  2  0  0  0  0
  3 19  3  0  0  0  0
  4 20  1  0  0  0  0
  1 22  1  0  0  0  0
 10 23  1  0  0  0  0
  3 24  1  0  0  0  0
  4 24  2  0  0  0  0
  6 25  2  0  0  0  0
 18 25  1  0  0  0  0
 21 25  1  0  0  0  0
  8 26  2  0  0  0  0
 22 26  1  0  0  0  0
  7 27  2  0  0  0  0
 23 27  1  0  0  0  0
 26 27  1  0  0  0  0
 21 28  1  0  0  0  0
 24 28  1  0  0  0  0
  7 29  1  0  0  0  0
 20 29  2  0  0  0  0
  8 30  1  0  0  0  0
 28 30  2  0  0  0  0
 29 30  1  0  0  0  0
  2 31  1  0  0  0  0
 12 31  1  0  0  0  0
 13 31  1  0  0  0  0
 11 32  1  0  0  0  0
 14 32  1  0  0  0  0
 15 32  1  0  0  0  0
 17 33  1  0  0  0  0
 18 34  1  0  0  0  0
 16 36  1  0  0  0  0
 35 36  1  0  0  0  0
 38 45  1  0  0  0  0
 45 46  1  0  0  0  0
 48 50  1  0  0  0  0
 49 51  1  0  0  0  0
 42 52  1  0  0  0  0
 41 53  1  0  0  0  0
 52 53  2  0  0  0  0
 41 54  2  0  0  0  0
 39 55  3  0  0  0  0
 40 56  1  0  0  0  0
 37 58  1  0  0  0  0
 46 59  1  0  0  0  0
 39 60  1  0  0  0  0
 40 60  2  0  0  0  0
 42 61  2  0  0  0  0
 54 61  1  0  0  0  0
 57 61  1  0  0  0  0
 44 62  2  0  0  0  0
 58 62  1  0  0  0  0
 43 63  2  0  0  0  0
 59 63  1  0  0  0  0
 62 63  1  0  0  0  0
 57 64  1  0  0  0  0
 60 64  1  0  0  0  0
 43 65  1  0  0  0  0
 56 65  2  0  0  0  0
 44 66  1  0  0  0  0
 64 66  2  0  0  0  0
 65 66  1  0  0  0  0
 38 67  1  0  0  0  0
 48 67  1  0  0  0  0
 49 67  1  0  0  0  0
 47 68  1  0  0  0  0
 50 68  1  0  0  0  0
 51 68  1  0  0  0  0
 53 69  1  0  0  0  0
 54 70  1  0  0  0  0
 52 72  1  0  0  0  0
 71 72  1  0  0  0  0
 74 81  1  0  0  0  0
 81 82  1  0  0  0  0
 84 86  1  0  0  0  0
 85 87  1  0  0  0  0
 78 88  1  0  0  0  0
 77 89  1  0  0  0  0
 88 89  2  0  0  0  0
 77 90  2  0  0  0  0
 75 91  3  0  0  0  0
 76 92  1  0  0  0  0
 73 94  1  0  0  0  0
 82 95  1  0  0  0  0
 75 96  1  0  0  0  0
 76 96  2  0  0  0  0
 78 97  2  0  0  0  0
 90 97  1  0  0  0  0
 93 97  1  0  0  0  0
 80 98  2  0  0  0  0
 94 98  1  0  0  0  0
 79 99  2  0  0  0  0
 95 99  1  0  0  0  0
 98 99  1  0  0  0  0
 93100  1  0  0  0  0
 96100  1  0  0  0  0
 79101  1  0  0  0  0
 92101  2  0  0  0  0
 80102  1  0  0  0  0
100102  2  0  0  0  0
101102  1  0  0  0  0
 74103  1  0  0  0  0
 84103  1  0  0  0  0
 85103  1  0  0  0  0
 83104  1  0  0  0  0
 86104  1  0  0  0  0
 87104  1  0  0  0  0
 89105  1  0  0  0  0
 90106  1  0  0  0  0
 88108  1  0  0  0  0
107108  1  0  0  0  0
110117  1  0  0  0  0
117118  1  0  0  0  0
120122  1  0  0  0  0
121123  1  0  0  0  0
114124  1  0  0  0  0
113125  1  0  0  0  0
124125  2  0  0  0  0
113126  2  0  0  0  0
111127  3  0  0  0  0
112128  1  0  0  0  0
109130  1  0  0  0  0
118131  1  0  0  0  0
111132  1  0  0  0  0
112132  2  0  0  0  0
114133  2  0  0  0  0
126133  1  0  0  0  0
129133  1  0  0  0  0
116134  2  0  0  0  0
130134  1  0  0  0  0
115135  2  0  0  0  0
131135  1  0  0  0  0
134135  1  0  0  0  0
129136  1  0  0  0  0
132136  1  0  0  0  0
115137  1  0  0  0  0
128137  2  0  0  0  0
116138  1  0  0  0  0
136138  2  0  0  0  0
137138  1  0  0  0  0
110139  1  0  0  0  0
120139  1  0  0  0  0
121139  1  0  0  0  0
119140  1  0  0  0  0
122140  1  0  0  0  0
123140  1  0  0  0  0
125141  1  0  0  0  0
126142  1  0  0  0  0
124144  1  0  0  0  0
143144  1  0  0  0  0
146153  1  0  0  0  0
153154  1  0  0  0  0
156158  1  0  0  0  0
157159  1  0  0  0  0
150160  1  0  0  0  0
149161  1  0  0  0  0
160161  2  0  0  0  0
149162  2  0  0  0  0
147163  3  0  0  0  0
148164  1  0  0  0  0
145166  1  0  0  0  0
154167  1  0  0  0  0
147168  1  0  0  0  0
148168  2  0  0  0  0
150169  2  0  0  0  0
162169  1  0  0  0  0
165169  1  0  0  0  0
152170  2  0  0  0  0
166170  1  0  0  0  0
151171  2  0  0  0  0
167171  1  0  0  0  0
170171  1  0  0  0  0
165172  1  0  0  0  0
168172  1  0  0  0  0
151173  1  0  0  0  0
164173  2  0  0  0  0
152174  1  0  0  0  0
172174  2  0  0  0  0
173174  1  0  0  0  0
146175  1  0  0  0  0
156175  1  0  0  0  0
157175  1  0  0  0  0
155176  1  0  0  0  0
158176  1  0  0  0  0
159176  1  0  0  0  0
161177  1  0  0  0  0
162178  1  0  0  0  0
160180  1  0  0  0  0
179180  1  0  0  0  0
182189  1  0  0  0  0
189190  1  0  0  0  0
192194  1  0  0  0  0
193195  1  0  0  0  0
186196  1  0  0  0  0
185197  1  0  0  0  0
196197  2  0  0  0  0
185198  2  0  0  0  0
183199  3  0  0  0  0
184200  1  0  0  0  0
181202  1  0  0  0  0
190203  1  0  0  0  0
183204  1  0  0  0  0
184204  2  0  0  0  0
186205  2  0  0  0  0
198205  1  0  0  0  0
201205  1  0  0  0  0
188206  2  0  0  0  0
202206  1  0  0  0  0
187207  2  0  0  0  0
203207  1  0  0  0  0
206207  1  0  0  0  0
201208  1  0  0  0  0
204208  1  0  0  0  0
187209  1  0  0  0  0
200209  2  0  0  0  0
188210  1  0  0  0  0
208210  2  0  0  0  0
209210  1  0  0  0  0
182211  1  0  0  0  0
192211  1  0  0  0  0
193211  1  0  0  0  0
191212  1  0  0  0  0
194212  1  0  0  0  0
195212  1  0  0  0  0
197213  1  0  0  0  0
198214  1  0  0  0  0
196216  1  0  0  0  0
215216  1  0  0  0  0
M  END
$$$$
