8R4V
  PyMOL3.1          3D                             0

126138  0  0  0  0  0  0  0  0999 V2000
  -10.4100  -61.4520   -6.5410 C   0  0  0  0  0  0  0  0  0  0  0  0
  -10.1480  -60.4290   -5.6660 C   0  0  0  0  0  0  0  0  0  0  0  0
   -9.3870  -62.0080   -7.2850 C   0  0  0  0  0  0  0  0  0  0  0  0
    1.0970  -58.7450   -3.6910 C   0  0  0  0  0  0  0  0  0  0  0  0
    2.5330  -59.4570   -5.4410 C   0  0  0  0  0  0  0  0  0  0  0  0
    0.2050  -58.3130   -4.6430 C   0  0  0  0  0  0  0  0  0  0  0  0
    1.6440  -59.0260   -6.4180 C   0  0  0  0  0  0  0  0  0  0  0  0
   -2.7520  -61.5690   -3.9610 C   0  0  0  0  0  0  0  0  0  0  0  0
   -2.0730  -61.7550   -2.7880 C   0  0  0  0  0  0  0  0  0  0  0  0
   -3.1730  -59.8400   -1.7740 C   0  0  0  0  0  0  0  0  0  0  0  0
   -2.3900  -59.1640   -6.0270 C   0  0  0  0  0  0  0  0  0  0  0  0
   -3.6770  -58.6220   -8.2920 C   0  0  0  0  0  0  0  0  0  0  0  0
   -8.8510  -59.9650   -5.5390 C   0  0  0  0  0  0  0  0  0  0  0  0
   -8.0870  -61.5580   -7.1650 C   0  0  0  0  0  0  0  0  0  0  0  0
    2.2790  -59.3300   -4.0860 C   0  0  0  0  0  0  0  0  0  0  0  0
    0.4640  -58.4530   -5.9910 C   0  0  0  0  0  0  0  0  0  0  0  0
   -3.6450  -60.5080   -4.0200 C   0  0  0  0  0  0  0  0  0  0  0  0
   -7.8280  -60.5310   -6.2810 C   0  0  0  0  0  0  0  0  0  0  0  0
   -2.2840  -60.8960   -1.7280 C   0  0  0  0  0  0  0  0  0  0  0  0
   -3.8660  -59.6580   -2.9560 C   0  0  0  0  0  0  0  0  0  0  0  0
   -1.7730  -58.4670   -7.0380 C   0  0  0  0  0  0  0  0  0  0  0  0
   -3.7000  -59.5630   -6.2310 C   0  0  0  0  0  0  0  0  0  0  0  0
   -5.7210  -60.6150   -5.2060 C   0  0  0  0  0  0  0  0  0  0  0  0
    4.4880  -60.0920   -3.6800 C   0  0  0  0  0  0  0  0  0  0  0  0
    2.7400  -60.7530   -2.1430 C   0  0  0  0  0  0  0  0  0  0  0  0
    5.5490  -59.9850   -2.6030 C   0  0  0  0  0  0  0  0  0  0  0  0
    3.9610  -61.5480   -1.6920 C   0  0  0  0  0  0  0  0  0  0  0  0
   -8.6130  -58.8480   -4.5640 C   0  0  0  0  0  0  0  0  0  0  0  0
   -7.0080  -62.1850   -7.9950 C   0  0  0  0  0  0  0  0  0  0  0  0
    6.2030  -61.4890   -0.9840 C   0  0  0  0  0  0  0  0  0  0  0  0
   -0.5060  -60.1890   -0.6200 C   0  0  0  0  0  0  0  0  0  0  0  0
   -4.9190  -57.8550   -1.9640 C   0  0  0  0  0  0  0  0  0  0  0  0
   -2.4140  -58.2030   -8.1740 N   0  0  0  0  0  0  0  0  0  0  0  0
   -4.3560  -59.2790   -7.3620 N   0  0  0  0  0  0  0  0  0  0  0  0
    3.2080  -59.7440   -3.0770 N   0  0  0  0  0  0  0  0  0  0  0  0
    5.0850  -60.6570   -1.3990 N   0  0  0  0  0  0  0  0  0  0  0  0
   -0.4420  -58.0000   -6.9240 N   0  0  0  0  0  0  0  0  0  0  0  0
   -6.5070  -60.0650   -6.1740 N   0  0  0  0  0  0  0  0  0  0  0  0
   -4.3740  -60.2750   -5.2010 N   0  0  0  0  0  0  0  0  0  0  0  0
   -6.1960  -61.3800   -4.3880 O   0  0  0  0  0  0  0  0  0  0  0  0
   -1.5830  -61.1060   -0.5640 O   0  0  0  0  0  0  0  0  0  0  0  0
   -4.7970  -58.6250   -3.1530 O   0  0  0  0  0  0  0  0  0  0  0  0
   -8.2830   -7.0110   -5.7940 C   0  0  0  0  0  0  0  0  0  0  0  0
   -8.4470   -6.0760   -4.7990 C   0  0  0  0  0  0  0  0  0  0  0  0
   -7.2370   -6.8680   -6.6980 C   0  0  0  0  0  0  0  0  0  0  0  0
   -0.5000    1.7970   -3.1700 C   0  0  0  0  0  0  0  0  0  0  0  0
    0.9710    2.2920   -4.9650 C   0  0  0  0  0  0  0  0  0  0  0  0
   -1.5590    1.6580   -4.0370 C   0  0  0  0  0  0  0  0  0  0  0  0
   -0.0780    2.1450   -5.8370 C   0  0  0  0  0  0  0  0  0  0  0  0
   -1.8660   -2.3390   -3.2090 C   0  0  0  0  0  0  0  0  0  0  0  0
   -1.1820   -2.0020   -2.0500 C   0  0  0  0  0  0  0  0  0  0  0  0
   -3.2450   -1.2440   -1.0960 C   0  0  0  0  0  0  0  0  0  0  0  0
   -3.1210   -0.3740   -5.4710 C   0  0  0  0  0  0  0  0  0  0  0  0
   -4.4130   -0.8390   -7.6940 C   0  0  0  0  0  0  0  0  0  0  0  0
   -7.5880   -4.9940   -4.6920 C   0  0  0  0  0  0  0  0  0  0  0  0
   -6.3610   -5.8030   -6.5910 C   0  0  0  0  0  0  0  0  0  0  0  0
    0.7650    2.1110   -3.6250 C   0  0  0  0  0  0  0  0  0  0  0  0
   -1.3380    1.8340   -5.3840 C   0  0  0  0  0  0  0  0  0  0  0  0
   -3.2310   -2.1080   -3.3210 C   0  0  0  0  0  0  0  0  0  0  0  0
   -6.5340   -4.8560   -5.5920 C   0  0  0  0  0  0  0  0  0  0  0  0
   -1.8740   -1.4580   -0.9990 C   0  0  0  0  0  0  0  0  0  0  0  0
   -3.9230   -1.5620   -2.2580 C   0  0  0  0  0  0  0  0  0  0  0  0
   -3.0580    0.5260   -6.5050 C   0  0  0  0  0  0  0  0  0  0  0  0
   -3.8620   -1.5290   -5.5960 C   0  0  0  0  0  0  0  0  0  0  0  0
   -4.6980   -3.6100   -4.4580 C   0  0  0  0  0  0  0  0  0  0  0  0
    1.6930    3.4180   -1.8930 C   0  0  0  0  0  0  0  0  0  0  0  0
    3.0750    2.2810   -3.5330 C   0  0  0  0  0  0  0  0  0  0  0  0
    2.9480    3.4590   -1.0250 C   0  0  0  0  0  0  0  0  0  0  0  0
    4.2690    2.2900   -2.5960 C   0  0  0  0  0  0  0  0  0  0  0  0
   -7.8800   -4.0560   -3.5670 C   0  0  0  0  0  0  0  0  0  0  0  0
   -5.2660   -5.7460   -7.6160 C   0  0  0  0  0  0  0  0  0  0  0  0
    4.9540    2.4430   -0.3710 C   0  0  0  0  0  0  0  0  0  0  0  0
   -0.0770   -0.3120   -0.0320 C   0  0  0  0  0  0  0  0  0  0  0  0
   -5.8140   -1.2570   -1.0870 C   0  0  0  0  0  0  0  0  0  0  0  0
   -3.7200    0.3020   -7.6340 N   0  0  0  0  0  0  0  0  0  0  0  0
   -4.5240   -1.7660   -6.7250 N   0  0  0  0  0  0  0  0  0  0  0  0
    1.8460    2.2580   -2.7520 N   0  0  0  0  0  0  0  0  0  0  0  0
    3.7840    2.2660   -1.2260 N   0  0  0  0  0  0  0  0  0  0  0  0
   -2.3130    1.7210   -6.3560 N   0  0  0  0  0  0  0  0  0  0  0  0
   -5.6340   -3.7450   -5.4810 N   0  0  0  0  0  0  0  0  0  0  0  0
   -3.9120   -2.4410   -4.4940 N   0  0  0  0  0  0  0  0  0  0  0  0
   -4.5910   -4.4380   -3.5470 O   0  0  0  0  0  0  0  0  0  0  0  0
   -1.2110   -1.1520    0.1830 O   0  0  0  0  0  0  0  0  0  0  0  0
   -5.3020   -1.3590   -2.4280 O   0  0  0  0  0  0  0  0  0  0  0  0
  -58.3270  -21.5100  -22.3540 C   0  0  0  0  0  0  0  0  0  0  0  0
  -57.2500  -21.5060  -21.5000 C   0  0  0  0  0  0  0  0  0  0  0  0
  -58.4920  -22.5810  -23.2160 C   0  0  0  0  0  0  0  0  0  0  0  0
  -50.6620  -30.4990  -19.8310 C   0  0  0  0  0  0  0  0  0  0  0  0
  -50.5000  -32.0730  -21.6180 C   0  0  0  0  0  0  0  0  0  0  0  0
  -50.7190  -29.4960  -20.7620 C   0  0  0  0  0  0  0  0  0  0  0  0
  -50.5680  -31.0660  -22.5480 C   0  0  0  0  0  0  0  0  0  0  0  0
  -54.7240  -28.5350  -19.9960 C   0  0  0  0  0  0  0  0  0  0  0  0
  -54.3750  -29.2150  -18.8530 C   0  0  0  0  0  0  0  0  0  0  0  0
  -53.1350  -27.2670  -18.0410 C   0  0  0  0  0  0  0  0  0  0  0  0
  -52.6980  -27.6960  -22.2260 C   0  0  0  0  0  0  0  0  0  0  0  0
  -52.8210  -26.2720  -24.4090 C   0  0  0  0  0  0  0  0  0  0  0  0
  -56.3590  -22.5720  -21.5120 C   0  0  0  0  0  0  0  0  0  0  0  0
  -57.6120  -23.6520  -23.2420 C   0  0  0  0  0  0  0  0  0  0  0  0
  -50.5630  -31.8010  -20.2740 C   0  0  0  0  0  0  0  0  0  0  0  0
  -50.6830  -29.7660  -22.1100 C   0  0  0  0  0  0  0  0  0  0  0  0
  -54.2740  -27.2270  -20.1480 C   0  0  0  0  0  0  0  0  0  0  0  0
  -56.5420  -23.6430  -22.3720 C   0  0  0  0  0  0  0  0  0  0  0  0
  -53.5910  -28.5820  -17.8980 C   0  0  0  0  0  0  0  0  0  0  0  0
  -53.4900  -26.5900  -19.1920 C   0  0  0  0  0  0  0  0  0  0  0  0
  -51.7820  -27.8680  -23.2270 C   0  0  0  0  0  0  0  0  0  0  0  0
  -53.6980  -26.7470  -22.4050 C   0  0  0  0  0  0  0  0  0  0  0  0
  -55.5640  -25.5480  -21.3030 C   0  0  0  0  0  0  0  0  0  0  0  0
  -50.3400  -34.1120  -20.1480 C   0  0  0  0  0  0  0  0  0  0  0  0
  -51.6260  -32.9480  -18.5120 C   0  0  0  0  0  0  0  0  0  0  0  0
  -50.0540  -35.2970  -19.2460 C   0  0  0  0  0  0  0  0  0  0  0  0
  -51.5900  -34.2960  -17.7980 C   0  0  0  0  0  0  0  0  0  0  0  0
  -55.2010  -22.5410  -20.5560 C   0  0  0  0  0  0  0  0  0  0  0  0
  -57.8210  -24.8230  -24.1910 C   0  0  0  0  0  0  0  0  0  0  0  0
  -50.1820  -36.0060  -17.0340 C   0  0  0  0  0  0  0  0  0  0  0  0
  -53.5280  -30.6610  -17.0030 C   0  0  0  0  0  0  0  0  0  0  0  0
  -52.6800  -24.8130  -18.1310 C   0  0  0  0  0  0  0  0  0  0  0  0
  -51.8310  -27.1670  -24.3460 N   0  0  0  0  0  0  0  0  0  0  0  0
  -53.7660  -26.0070  -23.5100 N   0  0  0  0  0  0  0  0  0  0  0  0
  -50.4750  -32.8850  -19.3590 N   0  0  0  0  0  0  0  0  0  0  0  0
  -50.2370  -34.8350  -17.8930 N   0  0  0  0  0  0  0  0  0  0  0  0
  -50.7400  -28.8000  -23.0960 N   0  0  0  0  0  0  0  0  0  0  0  0
  -55.6520  -24.7540  -22.4050 N   0  0  0  0  0  0  0  0  0  0  0  0
  -54.6440  -26.5710  -21.3610 N   0  0  0  0  0  0  0  0  0  0  0  0
  -56.2420  -25.3850  -20.3000 O   0  0  0  0  0  0  0  0  0  0  0  0
  -53.2380  -29.2860  -16.7540 O   0  0  0  0  0  0  0  0  0  0  0  0
  -53.0630  -25.2600  -19.4120 O   0  0  0  0  0  0  0  0  0  0  0  0
  1  2  2  0  0  0  0
  1  3  1  0  0  0  0
  4  6  2  0  0  0  0
  5  7  1  0  0  0  0
  8  9  1  0  0  0  0
  2 13  1  0  0  0  0
  3 14  2  0  0  0  0
  4 15  1  0  0  0  0
  5 15  2  0  0  0  0
  6 16  1  0  0  0  0
  7 16  2  0  0  0  0
  8 17  2  0  0  0  0
 13 18  2  0  0  0  0
 14 18  1  0  0  0  0
  9 19  2  0  0  0  0
 10 19  1  0  0  0  0
 10 20  2  0  0  0  0
 17 20  1  0  0  0  0
 11 21  2  0  0  0  0
 11 22  1  0  0  0  0
 24 26  1  0  0  0  0
 25 27  1  0  0  0  0
 13 28  1  0  0  0  0
 14 29  1  0  0  0  0
 12 33  2  0  0  0  0
 21 33  1  0  0  0  0
 12 34  1  0  0  0  0
 22 34  2  0  0  0  0
 15 35  1  0  0  0  0
 24 35  1  0  0  0  0
 25 35  1  0  0  0  0
 26 36  1  0  0  0  0
 27 36  1  0  0  0  0
 30 36  1  0  0  0  0
 16 37  1  0  0  0  0
 21 37  1  0  0  0  0
 18 38  1  0  0  0  0
 23 38  1  0  0  0  0
 17 39  1  0  0  0  0
 22 39  1  0  0  0  0
 23 39  1  0  0  0  0
 23 40  2  0  0  0  0
 19 41  1  0  0  0  0
 31 41  1  0  0  0  0
 20 42  1  0  0  0  0
 32 42  1  0  0  0  0
 43 44  2  0  0  0  0
 43 45  1  0  0  0  0
 46 48  2  0  0  0  0
 47 49  1  0  0  0  0
 50 51  1  0  0  0  0
 44 55  1  0  0  0  0
 45 56  2  0  0  0  0
 46 57  1  0  0  0  0
 47 57  2  0  0  0  0
 48 58  1  0  0  0  0
 49 58  2  0  0  0  0
 50 59  2  0  0  0  0
 55 60  2  0  0  0  0
 56 60  1  0  0  0  0
 51 61  2  0  0  0  0
 52 61  1  0  0  0  0
 52 62  2  0  0  0  0
 59 62  1  0  0  0  0
 53 63  2  0  0  0  0
 53 64  1  0  0  0  0
 66 68  1  0  0  0  0
 67 69  1  0  0  0  0
 55 70  1  0  0  0  0
 56 71  1  0  0  0  0
 54 75  2  0  0  0  0
 63 75  1  0  0  0  0
 54 76  1  0  0  0  0
 64 76  2  0  0  0  0
 57 77  1  0  0  0  0
 66 77  1  0  0  0  0
 67 77  1  0  0  0  0
 68 78  1  0  0  0  0
 69 78  1  0  0  0  0
 72 78  1  0  0  0  0
 58 79  1  0  0  0  0
 63 79  1  0  0  0  0
 60 80  1  0  0  0  0
 65 80  1  0  0  0  0
 59 81  1  0  0  0  0
 64 81  1  0  0  0  0
 65 81  1  0  0  0  0
 65 82  2  0  0  0  0
 61 83  1  0  0  0  0
 73 83  1  0  0  0  0
 62 84  1  0  0  0  0
 74 84  1  0  0  0  0
 85 86  2  0  0  0  0
 85 87  1  0  0  0  0
 88 90  2  0  0  0  0
 89 91  1  0  0  0  0
 92 93  1  0  0  0  0
 86 97  1  0  0  0  0
 87 98  2  0  0  0  0
 88 99  1  0  0  0  0
 89 99  2  0  0  0  0
 90100  1  0  0  0  0
 91100  2  0  0  0  0
 92101  2  0  0  0  0
 97102  2  0  0  0  0
 98102  1  0  0  0  0
 93103  2  0  0  0  0
 94103  1  0  0  0  0
 94104  2  0  0  0  0
101104  1  0  0  0  0
 95105  2  0  0  0  0
 95106  1  0  0  0  0
108110  1  0  0  0  0
109111  1  0  0  0  0
 97112  1  0  0  0  0
 98113  1  0  0  0  0
 96117  2  0  0  0  0
105117  1  0  0  0  0
 96118  1  0  0  0  0
106118  2  0  0  0  0
 99119  1  0  0  0  0
108119  1  0  0  0  0
109119  1  0  0  0  0
110120  1  0  0  0  0
111120  1  0  0  0  0
114120  1  0  0  0  0
100121  1  0  0  0  0
105121  1  0  0  0  0
102122  1  0  0  0  0
107122  1  0  0  0  0
101123  1  0  0  0  0
106123  1  0  0  0  0
107123  1  0  0  0  0
107124  2  0  0  0  0
103125  1  0  0  0  0
115125  1  0  0  0  0
104126  1  0  0  0  0
116126  1  0  0  0  0
M  END
$$$$
