6WEV
  PyMOL3.1          3D                             0

 26 28  0  0  0  0  0  0  0  0999 V2000
   33.3230   -3.8750   14.0180 C   0  0  0  0  0  0  0  0  0  0  0  0
   32.6550   -3.8930   12.7740 O   0  0  0  0  0  0  0  0  0  0  0  0
   33.4950   -3.7630   11.6380 C   0  0  0  0  0  0  0  0  0  0  0  0
   34.5990   -2.9060   11.6570 C   0  0  0  0  0  0  0  0  0  0  0  0
   35.4450   -2.7880   10.4960 C   0  0  0  0  0  0  0  0  0  0  0  0
   36.5290   -1.9510   10.5070 N   0  0  0  0  0  0  0  0  0  0  0  0
   37.3160   -1.8300    9.4420 C   0  0  0  0  0  0  0  0  0  0  0  0
   37.0810   -2.5220    8.3120 N   0  0  0  0  0  0  0  0  0  0  0  0
   36.0530   -3.3550    8.2240 C   0  0  0  0  0  0  0  0  0  0  0  0
   35.1690   -3.5080    9.3660 C   0  0  0  0  0  0  0  0  0  0  0  0
   34.0280   -4.3910    9.3520 C   0  0  0  0  0  0  0  0  0  0  0  0
   33.2060   -4.5010   10.4920 C   0  0  0  0  0  0  0  0  0  0  0  0
   32.0790   -5.3670   10.5130 O   0  0  0  0  0  0  0  0  0  0  0  0
   31.4450   -5.5530    9.2640 C   0  0  0  0  0  0  0  0  0  0  0  0
   35.8120   -4.0800    6.9690 N   0  0  0  0  0  0  0  0  0  0  0  0
   36.1840   -5.5610    6.8290 C   0  0  0  0  0  0  0  0  0  0  0  0
   36.1510   -6.0640    5.3830 C   0  0  0  0  0  0  0  0  0  0  0  0
   34.8780   -5.7800    4.7350 C   0  0  0  0  0  0  0  0  0  0  0  0
   34.5860   -4.3550    4.7430 C   0  0  0  0  0  0  0  0  0  0  0  0
   34.5340   -3.7990    6.1660 C   0  0  0  0  0  0  0  0  0  0  0  0
   34.9090   -6.2810    3.2580 C   0  0  0  0  0  0  0  0  0  0  0  0
   35.0900   -7.7500    3.2160 N   0  0  0  0  0  0  0  0  0  0  0  0
   36.4710   -8.4000    2.4540 S   0  0  0  0  0  0  0  0  0  0  0  0
   36.9380   -9.6130    3.1250 O   0  0  0  0  0  0  0  0  0  0  0  0
   37.6250   -7.5160    2.6140 O   0  0  0  0  0  0  0  0  0  0  0  0
   36.1470   -8.6770    0.8190 N   0  0  0  0  0  0  0  0  0  0  0  0
  1  2  1  0  0  0  0
  2  3  1  0  0  0  0
  3  4  1  0  0  0  0
  4  5  1  0  0  0  0
  5  6  1  0  0  0  0
  6  7  2  0  0  0  0
  7  8  1  0  0  0  0
  8  9  2  0  0  0  0
  5 10  2  0  0  0  0
  9 10  1  0  0  0  0
 10 11  1  0  0  0  0
  3 12  2  0  0  0  0
 11 12  1  0  0  0  0
 12 13  1  0  0  0  0
 13 14  1  0  0  0  0
  9 15  1  0  0  0  0
 15 16  1  0  0  0  0
 16 17  1  0  0  0  0
 17 18  1  0  0  0  0
 18 19  1  0  0  0  0
 15 20  1  0  0  0  0
 19 20  1  0  0  0  0
 18 21  1  0  0  0  0
 21 22  1  0  0  0  0
 22 23  1  0  0  0  0
 23 24  2  0  0  0  0
 23 25  2  0  0  0  0
 23 26  1  0  0  0  0
M  END
$$$$
