6WEV
  PyMOL3.1          3D                             0

 26 28  0  0  0  0  0  0  0  0999 V2000
   20.8740  -45.1690  -30.6670 C   0  0  0  0  0  0  0  0  0  0  0  0
   20.7990  -44.0180  -31.4700 O   0  0  0  0  0  0  0  0  0  0  0  0
   19.9160  -43.0080  -30.9910 C   0  0  0  0  0  0  0  0  0  0  0  0
   18.5740  -43.0020  -31.3900 C   0  0  0  0  0  0  0  0  0  0  0  0
   17.6800  -41.9720  -30.9160 C   0  0  0  0  0  0  0  0  0  0  0  0
   16.3610  -41.9530  -31.2890 N   0  0  0  0  0  0  0  0  0  0  0  0
   15.5330  -41.0060  -30.8470 C   0  0  0  0  0  0  0  0  0  0  0  0
   15.9570  -40.0320  -30.0160 N   0  0  0  0  0  0  0  0  0  0  0  0
   17.2140  -39.9910  -29.6220 C   0  0  0  0  0  0  0  0  0  0  0  0
   18.1430  -40.9980  -30.0800 C   0  0  0  0  0  0  0  0  0  0  0  0
   19.5250  -41.0000  -29.6700 C   0  0  0  0  0  0  0  0  0  0  0  0
   20.3960  -42.0050  -30.1320 C   0  0  0  0  0  0  0  0  0  0  0  0
   21.7620  -42.0160  -29.7360 O   0  0  0  0  0  0  0  0  0  0  0  0
   22.0860  -41.0580  -28.7440 C   0  0  0  0  0  0  0  0  0  0  0  0
   17.6580  -38.9300  -28.7300 N   0  0  0  0  0  0  0  0  0  0  0  0
   16.6680  -38.3200  -27.7390 C   0  0  0  0  0  0  0  0  0  0  0  0
   17.3700  -37.6550  -26.5590 C   0  0  0  0  0  0  0  0  0  0  0  0
   18.5540  -36.9070  -26.9710 C   0  0  0  0  0  0  0  0  0  0  0  0
   18.5340  -36.5660  -28.3860 C   0  0  0  0  0  0  0  0  0  0  0  0
   18.5350  -37.8060  -29.2800 C   0  0  0  0  0  0  0  0  0  0  0  0
   18.6490  -35.5860  -26.1500 C   0  0  0  0  0  0  0  0  0  0  0  0
   17.4670  -35.4350  -25.2740 N   0  0  0  0  0  0  0  0  0  0  0  0
   17.7140  -34.8990  -23.6800 S   0  0  0  0  0  0  0  0  0  0  0  0
   17.4880  -35.9770  -22.7220 O   0  0  0  0  0  0  0  0  0  0  0  0
   16.6900  -33.9260  -23.2950 O   0  0  0  0  0  0  0  0  0  0  0  0
   19.2630  -34.2410  -23.5110 N   0  0  0  0  0  0  0  0  0  0  0  0
  1  2  1  0  0  0  0
  2  3  1  0  0  0  0
  3  4  1  0  0  0  0
  4  5  1  0  0  0  0
  5  6  1  0  0  0  0
  6  7  2  0  0  0  0
  7  8  1  0  0  0  0
  8  9  2  0  0  0  0
  5 10  2  0  0  0  0
  9 10  1  0  0  0  0
 10 11  1  0  0  0  0
  3 12  2  0  0  0  0
 11 12  1  0  0  0  0
 12 13  1  0  0  0  0
 13 14  1  0  0  0  0
  9 15  1  0  0  0  0
 15 16  1  0  0  0  0
 16 17  1  0  0  0  0
 17 18  1  0  0  0  0
 18 19  1  0  0  0  0
 15 20  1  0  0  0  0
 19 20  1  0  0  0  0
 18 21  1  0  0  0  0
 21 22  1  0  0  0  0
 22 23  1  0  0  0  0
 23 24  2  0  0  0  0
 23 25  2  0  0  0  0
 23 26  1  0  0  0  0
M  END
$$$$
