8SDZ
  PyMOL3.1          3D                             0

 19 19  0  0  0  0  0  0  0  0999 V2000
   70.4890   67.3240   68.3590 C   0  0  0  0  0  0  0  0  0  0  0  0
   69.2910   67.2370   69.3030 C   0  0  0  0  0  0  0  0  0  0  0  0
   68.7330   65.8160   69.4070 C   0  0  0  0  0  0  0  0  0  0  0  0
   67.3470   65.8570   69.8520 N   0  0  0  0  0  0  0  0  0  0  0  0
   67.0180   65.5400   71.2350 C   0  0  0  0  0  0  0  0  0  0  0  0
   66.9970   66.8090   72.0870 C   0  0  0  0  0  0  0  0  0  0  0  0
   67.0750   66.5060   73.5820 C   0  0  0  0  0  0  0  0  0  0  0  0
   66.0970   66.0690   68.7020 S   0  0  0  0  0  0  0  0  0  0  0  0
   66.6340   66.1040   67.3430 O   0  0  0  0  0  0  0  0  0  0  0  0
   65.4990   67.3990   68.8030 O   0  0  0  0  0  0  0  0  0  0  0  0
   64.8440   64.7600   68.8690 C   0  0  0  0  0  0  0  0  0  0  0  0
   63.7730   64.9310   69.7330 C   0  0  0  0  0  0  0  0  0  0  0  0
   62.8190   63.9340   69.8580 C   0  0  0  0  0  0  0  0  0  0  0  0
   62.9360   62.7670   69.1200 C   0  0  0  0  0  0  0  0  0  0  0  0
   64.0040   62.5980   68.2550 C   0  0  0  0  0  0  0  0  0  0  0  0
   64.9590   63.5940   68.1290 C   0  0  0  0  0  0  0  0  0  0  0  0
   61.8860   61.6690   69.2560 C   0  0  0  0  0  0  0  0  0  0  0  0
   61.4650   61.3380   70.3950 O   0  0  0  0  0  0  0  0  0  0  0  0
   61.4460   61.0930   68.2300 O   0  0  0  0  0  0  0  0  0  0  0  0
  1  2  1  0  0  0  0
  2  3  1  0  0  0  0
  3  4  1  0  0  0  0
  4  5  1  0  0  0  0
  5  6  1  0  0  0  0
  6  7  1  0  0  0  0
  4  8  1  0  0  0  0
  8  9  2  0  0  0  0
  8 10  2  0  0  0  0
  8 11  1  0  0  0  0
 11 12  1  0  0  0  0
 12 13  2  0  0  0  0
 13 14  1  0  0  0  0
 14 15  2  0  0  0  0
 11 16  2  0  0  0  0
 15 16  1  0  0  0  0
 14 17  1  0  0  0  0
 17 18  1  0  0  0  0
 17 19  2  0  0  0  0
M  END
$$$$
