8UXS
  PyMOL3.1          3D                             0

 49 50  0  0  0  0  0  0  0  0999 V2000
   18.9809  -17.0689   55.4249 C   0  0  0  0  0  0  0  0  0  0  0  0
   13.6116  -10.2219   60.2166 N   0  0  0  0  0  0  0  0  0  0  0  0
   12.3815  -11.2321   58.5613 O   0  0  0  0  0  0  0  0  0  0  0  0
   15.2309  -12.9429   59.3112 S   0  0  0  0  0  0  0  0  0  0  0  0
   17.5207  -17.3142   55.0458 C   0  0  0  0  0  0  0  0  0  0  0  0
   12.1702  -12.4084   63.4618 N   0  0  0  0  0  0  0  0  0  0  0  0
   14.6636  -12.4508   64.6392 O   0  0  0  0  0  0  0  0  0  0  0  0
   17.2638  -16.7356   53.6562 C   0  0  0  0  0  0  0  0  0  0  0  0
   11.0371  -11.6854   63.7598 N   0  0  0  0  0  0  0  0  0  0  0  0
   13.9149  -13.8322   66.1584 O   0  0  0  0  0  0  0  0  0  0  0  0
   17.2424  -18.8148   55.0238 C   0  0  0  0  0  0  0  0  0  0  0  0
   11.0097  -10.6227   62.8534 N   0  0  0  0  0  0  0  0  0  0  0  0
   16.6276  -16.5978   56.0554 C   0  0  0  0  0  0  0  0  0  0  0  0
   15.8094  -17.2851   56.9411 C   0  0  0  0  0  0  0  0  0  0  0  0
   15.0141  -16.5697   57.8426 C   0  0  0  0  0  0  0  0  0  0  0  0
   15.0540  -15.1726   57.8326 C   0  0  0  0  0  0  0  0  0  0  0  0
   14.2114  -14.3566   58.8036 C   0  0  0  0  0  0  0  0  0  0  0  0
   14.7072  -11.5200   58.3156 C   0  0  0  0  0  0  0  0  0  0  0  0
   13.4570  -10.9924   59.0004 C   0  0  0  0  0  0  0  0  0  0  0  0
   12.4368   -9.7282   60.8989 C   0  0  0  0  0  0  0  0  0  0  0  0
   12.1018  -10.6986   62.0249 C   0  0  0  0  0  0  0  0  0  0  0  0
   12.8342  -11.8133   62.3910 C   0  0  0  0  0  0  0  0  0  0  0  0
   12.6002  -13.6028   64.1559 C   0  0  0  0  0  0  0  0  0  0  0  0
   13.7968  -13.2717   65.0388 C   0  0  0  0  0  0  0  0  0  0  0  0
   15.8806  -14.5104   56.9424 C   0  0  0  0  0  0  0  0  0  0  0  0
   16.6459  -15.2303   56.0725 C   0  0  0  0  0  0  0  0  0  0  0  0
   14.5243  -10.0329   60.5818 H   0  0  0  0  0  0  0  0  0  0  0  0
   19.1949  -17.5532   56.3731 H   0  0  0  0  0  0  0  0  0  0  0  0
   15.7867  -18.3678   56.9344 H   0  0  0  0  0  0  0  0  0  0  0  0
   14.3737  -17.0933   58.5416 H   0  0  0  0  0  0  0  0  0  0  0  0
   13.9478  -14.9578   59.6675 H   0  0  0  0  0  0  0  0  0  0  0  0
   13.3069  -14.0099   58.3148 H   0  0  0  0  0  0  0  0  0  0  0  0
   15.4819  -10.7605   58.3005 H   0  0  0  0  0  0  0  0  0  0  0  0
   14.4831  -11.8284   57.2998 H   0  0  0  0  0  0  0  0  0  0  0  0
   11.6053   -9.6694   60.2043 H   0  0  0  0  0  0  0  0  0  0  0  0
   12.6359   -8.7435   61.3088 H   0  0  0  0  0  0  0  0  0  0  0  0
   13.7520  -12.1589   61.9314 H   0  0  0  0  0  0  0  0  0  0  0  0
   11.7883  -13.9760   64.7713 H   0  0  0  0  0  0  0  0  0  0  0  0
   19.6284  -17.4782   54.6551 H   0  0  0  0  0  0  0  0  0  0  0  0
   12.8829  -14.3601   63.4321 H   0  0  0  0  0  0  0  0  0  0  0  0
   15.9198  -13.4281   56.9364 H   0  0  0  0  0  0  0  0  0  0  0  0
   17.2862  -14.7041   55.3754 H   0  0  0  0  0  0  0  0  0  0  0  0
   19.1568  -16.0011   55.5159 H   0  0  0  0  0  0  0  0  0  0  0  0
   16.1949  -16.6176   53.5052 H   0  0  0  0  0  0  0  0  0  0  0  0
   17.6635  -17.4093   52.9040 H   0  0  0  0  0  0  0  0  0  0  0  0
   17.7504  -15.7684   53.5712 H   0  0  0  0  0  0  0  0  0  0  0  0
   17.5875  -19.2606   55.9520 H   0  0  0  0  0  0  0  0  0  0  0  0
   17.7666  -19.2679   54.1876 H   0  0  0  0  0  0  0  0  0  0  0  0
   16.1750  -18.9834   54.9161 H   0  0  0  0  0  0  0  0  0  0  0  0
  1  5  1  0  0  0  0
  5  8  1  0  0  0  0
  6  9  1  0  0  0  0
  5 11  1  0  0  0  0
  9 12  2  0  0  0  0
  5 13  1  0  0  0  0
 13 14  2  0  0  0  0
 14 15  1  0  0  0  0
 15 16  2  0  0  0  0
  4 17  1  0  0  0  0
 16 17  1  0  0  0  0
  4 18  1  0  0  0  0
  2 19  1  0  0  0  0
  3 19  2  0  0  0  0
 18 19  1  0  0  0  0
  2 20  1  0  0  0  0
 12 21  1  0  0  0  0
 20 21  1  0  0  0  0
  6 22  1  0  0  0  0
 21 22  2  0  0  0  0
  6 23  1  0  0  0  0
  7 24  2  0  0  0  0
 10 24  1  0  0  0  0
 23 24  1  0  0  0  0
 16 25  1  0  0  0  0
 13 26  1  0  0  0  0
 25 26  2  0  0  0  0
  2 27  1  0  0  0  0
  1 28  1  0  0  0  0
 14 29  1  0  0  0  0
 15 30  1  0  0  0  0
 17 31  1  0  0  0  0
 17 32  1  0  0  0  0
 18 33  1  0  0  0  0
 18 34  1  0  0  0  0
 20 35  1  0  0  0  0
 20 36  1  0  0  0  0
 22 37  1  0  0  0  0
 23 38  1  0  0  0  0
  1 39  1  0  0  0  0
 23 40  1  0  0  0  0
 25 41  1  0  0  0  0
 26 42  1  0  0  0  0
  1 43  1  0  0  0  0
  8 44  1  0  0  0  0
  8 45  1  0  0  0  0
  8 46  1  0  0  0  0
 11 47  1  0  0  0  0
 11 48  1  0  0  0  0
 11 49  1  0  0  0  0
M  END
$$$$
