8UXS
  PyMOL3.1          3D                             0

 49 50  0  0  0  0  0  0  0  0999 V2000
   16.5279  -18.8449   29.2535 C   0  0  0  0  0  0  0  0  0  0  0  0
   13.4264  -27.4576   23.8539 N   0  0  0  0  0  0  0  0  0  0  0  0
   12.1410  -26.5190   25.5095 O   0  0  0  0  0  0  0  0  0  0  0  0
   14.9424  -24.7128   24.8662 S   0  0  0  0  0  0  0  0  0  0  0  0
   17.0309  -20.2825   29.1307 C   0  0  0  0  0  0  0  0  0  0  0  0
   11.9996  -25.2198   20.6495 N   0  0  0  0  0  0  0  0  0  0  0  0
   13.8309  -23.5973   18.0964 O   0  0  0  0  0  0  0  0  0  0  0  0
   18.4686  -20.2976   28.6162 C   0  0  0  0  0  0  0  0  0  0  0  0
   10.8759  -25.9458   20.3255 N   0  0  0  0  0  0  0  0  0  0  0  0
   14.5365  -25.0854   19.5317 O   0  0  0  0  0  0  0  0  0  0  0  0
   16.9888  -20.9512   30.5046 C   0  0  0  0  0  0  0  0  0  0  0  0
   10.8511  -27.0319   21.2036 N   0  0  0  0  0  0  0  0  0  0  0  0
   16.1770  -21.0585   28.1301 C   0  0  0  0  0  0  0  0  0  0  0  0
   15.5658  -20.4077   27.0682 C   0  0  0  0  0  0  0  0  0  0  0  0
   14.7961  -21.1383   26.1579 C   0  0  0  0  0  0  0  0  0  0  0  0
   14.6565  -22.5162   26.3348 C   0  0  0  0  0  0  0  0  0  0  0  0
   13.8432  -23.3557   25.3620 C   0  0  0  0  0  0  0  0  0  0  0  0
   14.4541  -26.1849   25.8061 C   0  0  0  0  0  0  0  0  0  0  0  0
   13.2300  -26.7235   25.0849 C   0  0  0  0  0  0  0  0  0  0  0  0
   12.2757  -27.9585   23.1408 C   0  0  0  0  0  0  0  0  0  0  0  0
   11.9376  -26.9651   22.0381 C   0  0  0  0  0  0  0  0  0  0  0  0
   12.6619  -25.8354   21.7076 C   0  0  0  0  0  0  0  0  0  0  0  0
   12.4178  -24.0013   19.9909 C   0  0  0  0  0  0  0  0  0  0  0  0
   13.6705  -24.2486   19.1592 C   0  0  0  0  0  0  0  0  0  0  0  0
   15.2844  -23.1479   27.3921 C   0  0  0  0  0  0  0  0  0  0  0  0
   16.0307  -22.4141   28.2696 C   0  0  0  0  0  0  0  0  0  0  0  0
   14.3495  -27.6164   23.5008 H   0  0  0  0  0  0  0  0  0  0  0  0
   16.7929  -18.2909   28.3579 H   0  0  0  0  0  0  0  0  0  0  0  0
   15.6844  -19.3383   26.9449 H   0  0  0  0  0  0  0  0  0  0  0  0
   14.3137  -20.6411   25.3254 H   0  0  0  0  0  0  0  0  0  0  0  0
   12.9539  -23.7446   25.8468 H   0  0  0  0  0  0  0  0  0  0  0  0
   13.5554  -22.7650   24.4986 H   0  0  0  0  0  0  0  0  0  0  0  0
   15.2519  -26.9203   25.8046 H   0  0  0  0  0  0  0  0  0  0  0  0
   14.2083  -25.9201   26.8291 H   0  0  0  0  0  0  0  0  0  0  0  0
   12.5038  -28.9266   22.7072 H   0  0  0  0  0  0  0  0  0  0  0  0
   11.4350  -28.0554   23.8199 H   0  0  0  0  0  0  0  0  0  0  0  0
   13.5732  -25.4935   22.1826 H   0  0  0  0  0  0  0  0  0  0  0  0
   11.6206  -23.6544   19.3417 H   0  0  0  0  0  0  0  0  0  0  0  0
   15.4482  -18.8479   29.3711 H   0  0  0  0  0  0  0  0  0  0  0  0
   12.6295  -23.2450   20.7395 H   0  0  0  0  0  0  0  0  0  0  0  0
   15.1852  -24.2183   27.5237 H   0  0  0  0  0  0  0  0  0  0  0  0
   16.5189  -22.9158   29.0960 H   0  0  0  0  0  0  0  0  0  0  0  0
   16.9849  -18.3741   30.1189 H   0  0  0  0  0  0  0  0  0  0  0  0
   18.6377  -21.2030   28.0408 H   0  0  0  0  0  0  0  0  0  0  0  0
   18.6360  -19.4305   27.9841 H   0  0  0  0  0  0  0  0  0  0  0  0
   19.1546  -20.2700   29.4577 H   0  0  0  0  0  0  0  0  0  0  0  0
   17.5972  -21.8506   30.4882 H   0  0  0  0  0  0  0  0  0  0  0  0
   15.9633  -21.2122   30.7489 H   0  0  0  0  0  0  0  0  0  0  0  0
   17.3759  -20.2658   31.2528 H   0  0  0  0  0  0  0  0  0  0  0  0
  1  5  1  0  0  0  0
  5  8  1  0  0  0  0
  6  9  1  0  0  0  0
  5 11  1  0  0  0  0
  9 12  2  0  0  0  0
  5 13  1  0  0  0  0
 13 14  2  0  0  0  0
 14 15  1  0  0  0  0
 15 16  2  0  0  0  0
  4 17  1  0  0  0  0
 16 17  1  0  0  0  0
  4 18  1  0  0  0  0
  2 19  1  0  0  0  0
  3 19  2  0  0  0  0
 18 19  1  0  0  0  0
  2 20  1  0  0  0  0
 12 21  1  0  0  0  0
 20 21  1  0  0  0  0
  6 22  1  0  0  0  0
 21 22  2  0  0  0  0
  6 23  1  0  0  0  0
  7 24  2  0  0  0  0
 10 24  1  0  0  0  0
 23 24  1  0  0  0  0
 16 25  1  0  0  0  0
 13 26  1  0  0  0  0
 25 26  2  0  0  0  0
  2 27  1  0  0  0  0
  1 28  1  0  0  0  0
 14 29  1  0  0  0  0
 15 30  1  0  0  0  0
 17 31  1  0  0  0  0
 17 32  1  0  0  0  0
 18 33  1  0  0  0  0
 18 34  1  0  0  0  0
 20 35  1  0  0  0  0
 20 36  1  0  0  0  0
 22 37  1  0  0  0  0
 23 38  1  0  0  0  0
  1 39  1  0  0  0  0
 23 40  1  0  0  0  0
 25 41  1  0  0  0  0
 26 42  1  0  0  0  0
  1 43  1  0  0  0  0
  8 44  1  0  0  0  0
  8 45  1  0  0  0  0
  8 46  1  0  0  0  0
 11 47  1  0  0  0  0
 11 48  1  0  0  0  0
 11 49  1  0  0  0  0
M  END
$$$$
