8JZX
  PyMOL3.1          3D                             0

 32 35  0  0  0  0  0  0  0  0999 V2000
  133.1030  138.0220  149.8280 C   0  0  0  0  0  0  0  0  0  0  0  0
  132.8470  138.1070  151.3330 C   0  0  0  0  0  0  0  0  0  0  0  0
  132.7780  136.7940  151.7950 O   0  0  0  0  0  0  0  0  0  0  0  0
  132.4590  136.5690  153.1450 C   0  0  0  0  0  0  0  0  0  0  0  0
  133.4470  136.6220  154.1130 C   0  0  0  0  0  0  0  0  0  0  0  0
  133.1380  136.3720  155.4430 C   0  0  0  0  0  0  0  0  0  0  0  0
  131.8410  136.0390  155.7940 C   0  0  0  0  0  0  0  0  0  0  0  0
  130.8550  135.9620  154.8220 C   0  0  0  0  0  0  0  0  0  0  0  0
  131.1670  136.2140  153.4960 C   0  0  0  0  0  0  0  0  0  0  0  0
  131.4630  135.7510  157.2480 C   0  0  0  0  0  0  0  0  0  0  0  0
  132.3910  135.7180  158.2250 N   0  0  0  0  0  0  0  0  0  0  0  0
  132.0180  135.4530  159.5420 C   0  0  0  0  0  0  0  0  0  0  0  0
  133.0120  135.4220  160.5630 C   0  0  0  0  0  0  0  0  0  0  0  0
  132.6510  135.1640  161.8800 C   0  0  0  0  0  0  0  0  0  0  0  0
  131.3130  134.9260  162.1980 C   0  0  0  0  0  0  0  0  0  0  0  0
  130.3410  134.9540  161.2040 C   0  0  0  0  0  0  0  0  0  0  0  0
  130.7110  135.2240  159.8530 C   0  0  0  0  0  0  0  0  0  0  0  0
  129.7530  135.2590  158.8300 C   0  0  0  0  0  0  0  0  0  0  0  0
  130.1310  135.5160  157.5510 C   0  0  0  0  0  0  0  0  0  0  0  0
  128.2690  135.0050  159.1030 C   0  0  0  0  0  0  0  0  0  0  0  0
  127.6220  135.7970  159.6990 O   0  0  0  0  0  0  0  0  0  0  0  0
  127.6620  133.7800  158.6000 N   0  0  0  0  0  0  0  0  0  0  0  0
  126.2510  133.4980  158.8220 C   0  0  0  0  0  0  0  0  0  0  0  0
  126.0340  132.0020  159.0720 C   0  0  0  0  0  0  0  0  0  0  0  0
  124.9470  131.3650  158.1980 C   0  0  0  0  0  0  0  0  0  0  0  0
  123.9630  132.0620  158.0740 N   0  0  0  0  0  0  0  0  0  0  0  0
  123.0160  131.6390  159.0740 C   0  0  0  0  0  0  0  0  0  0  0  0
  121.6660  132.3520  158.9500 C   0  0  0  0  0  0  0  0  0  0  0  0
  121.1390  132.2470  157.6120 C   0  0  0  0  0  0  0  0  0  0  0  0
  122.0710  132.6470  156.5850 C   0  0  0  0  0  0  0  0  0  0  0  0
  123.4400  131.9740  156.7260 C   0  0  0  0  0  0  0  0  0  0  0  0
  124.3720  132.6460  155.7120 C   0  0  0  0  0  0  0  0  0  0  0  0
  1  2  1  0  0  0  0
  2  3  1  0  0  0  0
  3  4  1  0  0  0  0
  4  5  2  0  0  0  0
  5  6  1  0  0  0  0
  6  7  2  0  0  0  0
  7  8  1  0  0  0  0
  4  9  1  0  0  0  0
  8  9  2  0  0  0  0
  7 10  1  0  0  0  0
 10 11  2  0  0  0  0
 11 12  1  0  0  0  0
 12 13  2  0  0  0  0
 13 14  1  0  0  0  0
 14 15  2  0  0  0  0
 15 16  1  0  0  0  0
 12 17  1  0  0  0  0
 16 17  2  0  0  0  0
 17 18  1  0  0  0  0
 10 19  1  0  0  0  0
 18 19  2  0  0  0  0
 18 20  1  0  0  0  0
 20 21  2  0  0  0  0
 20 22  1  0  0  0  0
 22 23  1  0  0  0  0
 23 24  1  0  0  0  0
 24 25  1  0  0  0  0
 25 26  1  0  0  0  0
 26 27  1  0  0  0  0
 27 28  1  0  0  0  0
 28 29  1  0  0  0  0
 29 30  1  0  0  0  0
 26 31  1  0  0  0  0
 30 31  1  0  0  0  0
 31 32  1  0  0  0  0
M  END
$$$$
