7T6S
  PyMOL3.1          3D                             0

 27 29  0  0  0  0  0  0  0  0999 V2000
   89.5020  114.3200   95.2070 Cl  0  0  0  0  0  0  0  0  0  0  0  0
   78.8570  115.2580   94.1970 C   0  0  0  0  0  0  0  0  0  0  0  0
   78.1120  115.4780   93.0550 C   0  0  0  0  0  0  0  0  0  0  0  0
   76.9890  116.2820   93.0960 C   0  0  0  0  0  0  0  0  0  0  0  0
   76.6060  116.8700   94.2850 C   0  0  0  0  0  0  0  0  0  0  0  0
   77.3500  116.6550   95.4300 C   0  0  0  0  0  0  0  0  0  0  0  0
   78.4670  115.8380   95.3880 C   0  0  0  0  0  0  0  0  0  0  0  0
   79.2780  115.6140   96.5670 N   0  0  0  0  0  0  0  0  0  0  0  0
   80.3510  116.3010   96.7800 C   0  0  0  0  0  0  0  0  0  0  0  0
   80.9220  115.8700   97.9880 C   0  0  0  0  0  0  0  0  0  0  0  0
   80.0550  114.8540   98.4370 C   0  0  0  0  0  0  0  0  0  0  0  0
   79.0810  114.7430   97.5540 N   0  0  0  0  0  0  0  0  0  0  0  0
   77.9780  113.8100   97.6670 C   0  0  0  0  0  0  0  0  0  0  0  0
   80.2090  114.0450   99.7160 C   0  0  0  0  0  0  0  0  0  0  0  0
   80.2470  114.9720  100.9190 C   0  0  0  0  0  0  0  0  0  0  0  0
   81.4510  113.1680   99.6860 C   0  0  0  0  0  0  0  0  0  0  0  0
   80.7720  117.1430   96.0730 O   0  0  0  0  0  0  0  0  0  0  0  0
   82.1540  116.3500   98.5850 N   0  0  0  0  0  0  0  0  0  0  0  0
   83.2920  115.8380   97.8670 C   0  0  0  0  0  0  0  0  0  0  0  0
   84.6670  116.1310   98.2340 N   0  0  0  0  0  0  0  0  0  0  0  0
   85.8290  115.6540   97.4960 C   0  0  0  0  0  0  0  0  0  0  0  0
   87.0650  116.1250   97.8520 C   0  0  0  0  0  0  0  0  0  0  0  0
   88.1820  115.7110   97.1620 C   0  0  0  0  0  0  0  0  0  0  0  0
   88.0740  114.8440   96.1060 C   0  0  0  0  0  0  0  0  0  0  0  0
   86.8500  114.3800   95.7360 C   0  0  0  0  0  0  0  0  0  0  0  0
   85.7430  114.7890   96.4290 C   0  0  0  0  0  0  0  0  0  0  0  0
   83.0300  115.1480   96.9590 O   0  0  0  0  0  0  0  0  0  0  0  0
  2  3  1  0  0  0  0
  3  4  2  0  0  0  0
  4  5  1  0  0  0  0
  5  6  2  0  0  0  0
  2  7  2  0  0  0  0
  6  7  1  0  0  0  0
  7  8  1  0  0  0  0
  8  9  1  0  0  0  0
  9 10  1  0  0  0  0
 10 11  2  0  0  0  0
  8 12  1  0  0  0  0
 11 12  1  0  0  0  0
 12 13  1  0  0  0  0
 11 14  1  0  0  0  0
 14 15  1  0  0  0  0
 14 16  1  0  0  0  0
  9 17  2  0  0  0  0
 10 18  1  0  0  0  0
 18 19  1  0  0  0  0
 19 20  1  0  0  0  0
 20 21  1  0  0  0  0
 21 22  1  0  0  0  0
 22 23  2  0  0  0  0
  1 24  1  0  0  0  0
 23 24  1  0  0  0  0
 24 25  2  0  0  0  0
 21 26  2  0  0  0  0
 25 26  1  0  0  0  0
 19 27  2  0  0  0  0
M  END
$$$$
