7T4U
  PyMOL3.1          3D                             0

 70 76  0  0  0  0  0  0  0  0999 V2000
   16.5170   15.8830  -26.4140 Cl  0  0  0  0  0  0  0  0  0  0  0  0
   13.4850   11.4850  -26.0650 Cl  0  0  0  0  0  0  0  0  0  0  0  0
   11.0400   16.7280  -22.0580 O   0  0  0  0  0  0  0  0  0  0  0  0
   11.5030   15.9460  -23.1460 C   0  0  0  0  0  0  0  0  0  0  0  0
   12.8560   15.4150  -22.7610 C   0  0  0  0  0  0  0  0  0  0  0  0
   12.6090   14.4530  -21.7300 O   0  0  0  0  0  0  0  0  0  0  0  0
   13.7260   13.7820  -21.1210 C   0  0  0  0  0  0  0  0  0  0  0  0
   14.5750   14.7340  -20.3170 C   0  0  0  0  0  0  0  0  0  0  0  0
   13.7170   15.3780  -19.2570 C   0  0  0  0  0  0  0  0  0  0  0  0
   13.0100   14.3640  -18.3850 C   0  0  0  0  0  0  0  0  0  0  0  0
   12.2540   13.3290  -19.1670 N   0  0  0  0  0  0  0  0  0  0  0  0
   11.6970   12.3070  -18.2280 C   0  0  0  0  0  0  0  0  0  0  0  0
   10.5900   12.7930  -17.3330 C   0  0  0  0  0  0  0  0  0  0  0  0
    9.3250   12.8210  -17.8870 C   0  0  0  0  0  0  0  0  0  0  0  0
    8.2400   13.2600  -17.1580 C   0  0  0  0  0  0  0  0  0  0  0  0
    8.4000   13.6840  -15.8520 C   0  0  0  0  0  0  0  0  0  0  0  0
    9.6640   13.6550  -15.2940 C   0  0  0  0  0  0  0  0  0  0  0  0
   10.7610   13.2120  -16.0130 C   0  0  0  0  0  0  0  0  0  0  0  0
   11.9990   13.2370  -15.3460 N   0  0  0  0  0  0  0  0  0  0  0  0
    7.2340   14.1860  -15.0790 C   0  0  0  0  0  0  0  0  0  0  0  0
    7.5090   14.9900  -14.1420 O   0  0  0  0  0  0  0  0  0  0  0  0
    6.0730   13.8170  -15.4220 O   0  0  0  0  0  0  0  0  0  0  0  0
   13.1200   12.7040  -20.2350 C   0  0  0  0  0  0  0  0  0  0  0  0
   12.5060   11.6570  -21.1220 C   0  0  0  0  0  0  0  0  0  0  0  0
   11.2720   11.8310  -21.7250 C   0  0  0  0  0  0  0  0  0  0  0  0
   10.7740   10.8610  -22.5710 C   0  0  0  0  0  0  0  0  0  0  0  0
   11.4940    9.7060  -22.8070 C   0  0  0  0  0  0  0  0  0  0  0  0
   12.7170    9.5250  -22.2000 C   0  0  0  0  0  0  0  0  0  0  0  0
   13.2190   10.5030  -21.3740 C   0  0  0  0  0  0  0  0  0  0  0  0
   13.5560   14.8240  -23.9440 C   0  0  0  0  0  0  0  0  0  0  0  0
   14.5690   15.5330  -24.5570 C   0  0  0  0  0  0  0  0  0  0  0  0
   15.2510   15.0010  -25.6310 C   0  0  0  0  0  0  0  0  0  0  0  0
   14.9210   13.7550  -26.1000 C   0  0  0  0  0  0  0  0  0  0  0  0
   13.9010   13.0510  -25.4960 C   0  0  0  0  0  0  0  0  0  0  0  0
   13.2200   13.5740  -24.4190 C   0  0  0  0  0  0  0  0  0  0  0  0
   37.2290    4.7900   -0.7380 Cl  0  0  0  0  0  0  0  0  0  0  0  0
   32.3300    6.3960    0.6450 Cl  0  0  0  0  0  0  0  0  0  0  0  0
   37.3620   10.4810    3.3850 O   0  0  0  0  0  0  0  0  0  0  0  0
   36.5460    9.7420    2.4850 C   0  0  0  0  0  0  0  0  0  0  0  0
   36.5620    8.3130    2.9570 C   0  0  0  0  0  0  0  0  0  0  0  0
   35.8320    8.3050    4.1870 O   0  0  0  0  0  0  0  0  0  0  0  0
   35.6830    7.0700    4.9100 C   0  0  0  0  0  0  0  0  0  0  0  0
   37.0050    6.5800    5.4490 C   0  0  0  0  0  0  0  0  0  0  0  0
   37.5850    7.6410    6.3470 C   0  0  0  0  0  0  0  0  0  0  0  0
   36.6360    8.0540    7.4480 C   0  0  0  0  0  0  0  0  0  0  0  0
   35.2690    8.4330    6.9490 N   0  0  0  0  0  0  0  0  0  0  0  0
   34.3610    8.7010    8.1220 C   0  0  0  0  0  0  0  0  0  0  0  0
   34.6880    9.9450    8.8960 C   0  0  0  0  0  0  0  0  0  0  0  0
   34.2440   11.1500    8.3770 C   0  0  0  0  0  0  0  0  0  0  0  0
   34.5370   12.3540    8.9910 C   0  0  0  0  0  0  0  0  0  0  0  0
   35.2780   12.3600   10.1590 C   0  0  0  0  0  0  0  0  0  0  0  0
   35.7050   11.1560   10.6830 C   0  0  0  0  0  0  0  0  0  0  0  0
   35.4320    9.9530   10.0660 C   0  0  0  0  0  0  0  0  0  0  0  0
   35.9540    8.7930   10.6810 N   0  0  0  0  0  0  0  0  0  0  0  0
   35.6320   13.6170   10.8750 C   0  0  0  0  0  0  0  0  0  0  0  0
   36.3660   13.5180   11.8950 O   0  0  0  0  0  0  0  0  0  0  0  0
   35.2230   14.7120   10.4020 O   0  0  0  0  0  0  0  0  0  0  0  0
   34.7010    7.3710    6.0340 C   0  0  0  0  0  0  0  0  0  0  0  0
   33.3440    7.6160    5.4360 C   0  0  0  0  0  0  0  0  0  0  0  0
   33.0070    8.8180    4.8390 C   0  0  0  0  0  0  0  0  0  0  0  0
   31.7750    9.0010    4.2430 C   0  0  0  0  0  0  0  0  0  0  0  0
   30.8500    7.9820    4.2610 C   0  0  0  0  0  0  0  0  0  0  0  0
   31.1700    6.7860    4.8700 C   0  0  0  0  0  0  0  0  0  0  0  0
   32.4140    6.5990    5.4410 C   0  0  0  0  0  0  0  0  0  0  0  0
   35.9490    7.4110    1.9290 C   0  0  0  0  0  0  0  0  0  0  0  0
   36.7730    6.6250    1.1500 C   0  0  0  0  0  0  0  0  0  0  0  0
   36.2120    5.7660    0.2380 C   0  0  0  0  0  0  0  0  0  0  0  0
   34.8460    5.6810    0.0790 C   0  0  0  0  0  0  0  0  0  0  0  0
   34.0340    6.4860    0.8350 C   0  0  0  0  0  0  0  0  0  0  0  0
   34.5770    7.3420    1.7650 C   0  0  0  0  0  0  0  0  0  0  0  0
  3  4  1  0  0  0  0
  4  5  1  0  0  0  0
  5  6  1  0  0  0  0
  6  7  1  0  0  0  0
  7  8  1  0  0  0  0
  8  9  1  0  0  0  0
  9 10  1  0  0  0  0
 10 11  1  0  0  0  0
 11 12  1  0  0  0  0
 12 13  1  0  0  0  0
 13 18  4  0  0  0  0
 13 14  4  0  0  0  0
 14 15  4  0  0  0  0
 15 16  4  0  0  0  0
 16 20  1  0  0  0  0
 16 17  4  0  0  0  0
 17 18  4  0  0  0  0
 18 19  1  0  0  0  0
 20 21  4  0  0  0  0
 20 22  4  0  0  0  0
  7 23  1  0  0  0  0
 11 23  1  0  0  0  0
 23 24  1  0  0  0  0
 24 25  4  0  0  0  0
 25 26  4  0  0  0  0
 26 27  4  0  0  0  0
 27 28  4  0  0  0  0
 28 29  4  0  0  0  0
 24 29  4  0  0  0  0
  5 30  1  0  0  0  0
 30 31  4  0  0  0  0
 31 32  4  0  0  0  0
  1 32  1  0  0  0  0
 32 33  4  0  0  0  0
 33 34  4  0  0  0  0
  2 34  1  0  0  0  0
 30 35  4  0  0  0  0
 34 35  4  0  0  0  0
 38 39  1  0  0  0  0
 39 40  1  0  0  0  0
 40 41  1  0  0  0  0
 41 42  1  0  0  0  0
 42 43  1  0  0  0  0
 43 44  1  0  0  0  0
 44 45  1  0  0  0  0
 45 46  1  0  0  0  0
 46 47  1  0  0  0  0
 47 48  1  0  0  0  0
 48 53  4  0  0  0  0
 48 49  4  0  0  0  0
 49 50  4  0  0  0  0
 50 51  4  0  0  0  0
 51 55  1  0  0  0  0
 51 52  4  0  0  0  0
 52 53  4  0  0  0  0
 53 54  1  0  0  0  0
 55 56  4  0  0  0  0
 55 57  4  0  0  0  0
 42 58  1  0  0  0  0
 46 58  1  0  0  0  0
 58 59  1  0  0  0  0
 59 60  4  0  0  0  0
 60 61  4  0  0  0  0
 61 62  4  0  0  0  0
 62 63  4  0  0  0  0
 63 64  4  0  0  0  0
 59 64  4  0  0  0  0
 40 65  1  0  0  0  0
 65 66  4  0  0  0  0
 66 67  4  0  0  0  0
 36 67  1  0  0  0  0
 67 68  4  0  0  0  0
 68 69  4  0  0  0  0
 37 69  1  0  0  0  0
 65 70  4  0  0  0  0
 69 70  4  0  0  0  0
M  END
$$$$
