8TBS
  PyMOL3.1          3D                             0

112128  0  0  0  0  0  0  0  0999 V2000
    7.1341  -71.8065 -196.4941 C   0  0  0  0  0  0  0  0  0  0  0  0
    7.1180  -71.8227 -197.8430 N   0  0  0  0  0  0  0  0  0  0  0  0
    7.0859  -70.5564 -198.4445 C   0  0  0  0  0  0  0  0  0  0  0  0
    7.0626  -69.4658 -197.5261 C   0  0  0  0  0  0  0  0  0  0  0  0
    7.0859  -70.1837 -195.9458 S   0  0  0  0  0  0  0  0  0  0  0  0
    7.0739  -70.0753 -199.7216 N   0  0  0  0  0  0  0  0  0  0  0  0
    7.0425  -68.7063 -199.7032 C   0  0  0  0  0  0  0  0  0  0  0  0
    7.0335  -68.2565 -198.3497 C   0  0  0  0  0  0  0  0  0  0  0  0
    7.0153  -67.6872 -200.7351 C   0  0  0  0  0  0  0  0  0  0  0  0
    6.9740  -66.3977 -200.3844 N   0  0  0  0  0  0  0  0  0  0  0  0
    6.9820  -65.9872 -199.1366 N   0  0  0  0  0  0  0  0  0  0  0  0
    7.0027  -66.8361 -198.1056 C   0  0  0  0  0  0  0  0  0  0  0  0
    7.0181  -67.9842 -201.9097 O   0  0  0  0  0  0  0  0  0  0  0  0
    7.0904  -70.9211 -200.9123 C   0  0  0  0  0  0  0  0  0  0  0  0
    7.1245  -73.0553 -195.6196 C   0  0  0  0  0  0  0  0  0  0  0  0
    5.6260  -73.3365 -195.6237 C   0  0  0  0  0  0  0  0  0  0  0  0
    4.6230  -72.6247 -194.8865 C   0  0  0  0  0  0  0  0  0  0  0  0
    3.3877  -73.2360 -195.2426 C   0  0  0  0  0  0  0  0  0  0  0  0
    3.6883  -74.1956 -196.1149 N   0  0  0  0  0  0  0  0  0  0  0  0
    4.9850  -74.2458 -196.3383 N   0  0  0  0  0  0  0  0  0  0  0  0
    6.9740  -65.4102 -201.4364 C   0  0  0  0  0  0  0  0  0  0  0  0
    8.4741  -65.2093 -201.7089 C   0  0  0  0  0  0  0  0  0  0  0  0
    9.2553  -64.5542 -200.7565 C   0  0  0  0  0  0  0  0  0  0  0  0
   10.6360  -64.3767 -200.9935 C   0  0  0  0  0  0  0  0  0  0  0  0
   11.1321  -64.8957 -202.1984 C   0  0  0  0  0  0  0  0  0  0  0  0
   10.2732  -65.5417 -203.0859 C   0  0  0  0  0  0  0  0  0  0  0  0
    8.9853  -65.6861 -202.8183 N   0  0  0  0  0  0  0  0  0  0  0  0
   10.7890  -66.0585 -204.3026 N   0  0  0  0  0  0  0  0  0  0  0  0
  -15.5695  -12.3843  -97.3744 C   0  0  0  0  0  0  0  0  0  0  0  0
  -14.9880  -12.4488  -98.5971 N   0  0  0  0  0  0  0  0  0  0  0  0
  -15.8863  -12.4300  -99.6811 C   0  0  0  0  0  0  0  0  0  0  0  0
  -17.2587  -12.3563  -99.3015 C   0  0  0  0  0  0  0  0  0  0  0  0
  -17.2674  -12.3198  -97.5714 S   0  0  0  0  0  0  0  0  0  0  0  0
  -15.8086  -12.4634 -101.0481 N   0  0  0  0  0  0  0  0  0  0  0  0
  -17.0682  -12.4126 -101.5958 C   0  0  0  0  0  0  0  0  0  0  0  0
  -18.0290  -12.3455 -100.5458 C   0  0  0  0  0  0  0  0  0  0  0  0
  -17.5816  -12.4153 -102.9538 C   0  0  0  0  0  0  0  0  0  0  0  0
  -18.9071  -12.3668 -103.1647 N   0  0  0  0  0  0  0  0  0  0  0  0
  -19.7859  -12.2922 -102.1914 N   0  0  0  0  0  0  0  0  0  0  0  0
  -19.4255  -12.2842 -100.9005 C   0  0  0  0  0  0  0  0  0  0  0  0
  -16.8177  -12.4737 -103.8925 O   0  0  0  0  0  0  0  0  0  0  0  0
  -14.5596  -12.5364 -101.7960 C   0  0  0  0  0  0  0  0  0  0  0  0
  -14.8370  -12.4340  -96.0325 C   0  0  0  0  0  0  0  0  0  0  0  0
  -14.6770  -13.9475  -95.8447 C   0  0  0  0  0  0  0  0  0  0  0  0
  -15.6916  -14.8705  -95.4241 C   0  0  0  0  0  0  0  0  0  0  0  0
  -15.0716  -16.1546  -95.4287 C   0  0  0  0  0  0  0  0  0  0  0  0
  -13.8167  -15.9603  -95.8297 N   0  0  0  0  0  0  0  0  0  0  0  0
  -13.5972  -14.6847  -96.0762 N   0  0  0  0  0  0  0  0  0  0  0  0
  -19.4037  -12.3519 -104.5220 C   0  0  0  0  0  0  0  0  0  0  0  0
  -19.3082  -10.8767 -104.9584 C   0  0  0  0  0  0  0  0  0  0  0  0
  -20.1883   -9.9383 -104.4187 C   0  0  0  0  0  0  0  0  0  0  0  0
  -20.0744   -8.5864 -104.8220 C   0  0  0  0  0  0  0  0  0  0  0  0
  -19.0657   -8.2721 -105.7501 C   0  0  0  0  0  0  0  0  0  0  0  0
  -18.2337   -9.2813 -106.2292 C   0  0  0  0  0  0  0  0  0  0  0  0
  -18.3756  -10.5337 -105.8198 N   0  0  0  0  0  0  0  0  0  0  0  0
  -17.2135   -8.9685 -107.1682 N   0  0  0  0  0  0  0  0  0  0  0  0
    6.7160  -51.1424 -181.8474 C   0  0  0  0  0  0  0  0  0  0  0  0
    6.7047  -51.1194 -180.4978 N   0  0  0  0  0  0  0  0  0  0  0  0
    6.7292  -52.3849 -179.8943 C   0  0  0  0  0  0  0  0  0  0  0  0
    6.7525  -53.4760 -180.8106 C   0  0  0  0  0  0  0  0  0  0  0  0
    6.7396  -52.7639 -182.3901 S   0  0  0  0  0  0  0  0  0  0  0  0
    6.7386  -52.8693 -178.6170 N   0  0  0  0  0  0  0  0  0  0  0  0
    6.7701  -54.2406 -178.6343 C   0  0  0  0  0  0  0  0  0  0  0  0
    6.7815  -54.6863 -179.9895 C   0  0  0  0  0  0  0  0  0  0  0  0
    6.7946  -55.2696 -177.6086 C   0  0  0  0  0  0  0  0  0  0  0  0
    6.8127  -56.5583 -177.9628 N   0  0  0  0  0  0  0  0  0  0  0  0
    6.8355  -56.9614 -179.2139 N   0  0  0  0  0  0  0  0  0  0  0  0
    6.8185  -56.1068 -180.2395 C   0  0  0  0  0  0  0  0  0  0  0  0
    6.7827  -54.9872 -176.4323 O   0  0  0  0  0  0  0  0  0  0  0  0
    6.7171  -52.0211 -177.4312 C   0  0  0  0  0  0  0  0  0  0  0  0
    6.6560  -49.9089 -182.7382 C   0  0  0  0  0  0  0  0  0  0  0  0
    5.1540  -49.6523 -182.7628 C   0  0  0  0  0  0  0  0  0  0  0  0
    4.1830  -50.3551 -183.5468 C   0  0  0  0  0  0  0  0  0  0  0  0
    2.9326  -49.7672 -183.2092 C   0  0  0  0  0  0  0  0  0  0  0  0
    3.1946  -48.8273 -182.3052 N   0  0  0  0  0  0  0  0  0  0  0  0
    4.4823  -48.7687 -182.0437 N   0  0  0  0  0  0  0  0  0  0  0  0
    6.8599  -57.5471 -176.9091 C   0  0  0  0  0  0  0  0  0  0  0  0
    8.3733  -57.6985 -176.6456 C   0  0  0  0  0  0  0  0  0  0  0  0
    9.1847  -58.3514 -177.5806 C   0  0  0  0  0  0  0  0  0  0  0  0
   10.5719  -58.4716 -177.3254 C   0  0  0  0  0  0  0  0  0  0  0  0
   11.0455  -57.9045 -176.1279 C   0  0  0  0  0  0  0  0  0  0  0  0
   10.1569  -57.2662 -175.2610 C   0  0  0  0  0  0  0  0  0  0  0  0
    8.8688  -57.1782 -175.5456 N   0  0  0  0  0  0  0  0  0  0  0  0
   10.6242  -56.6935 -174.0475 N   0  0  0  0  0  0  0  0  0  0  0  0
  -36.9586  -11.6503  -85.8637 C   0  0  0  0  0  0  0  0  0  0  0  0
  -38.2907  -11.6069  -86.1053 N   0  0  0  0  0  0  0  0  0  0  0  0
  -38.6404  -11.6091  -87.4690 C   0  0  0  0  0  0  0  0  0  0  0  0
  -37.5272  -11.6462  -88.3624 C   0  0  0  0  0  0  0  0  0  0  0  0
  -36.1185  -11.6769  -87.3537 S   0  0  0  0  0  0  0  0  0  0  0  0
  -39.7960  -11.5840  -88.2009 N   0  0  0  0  0  0  0  0  0  0  0  0
  -39.5055  -11.6030  -89.5456 C   0  0  0  0  0  0  0  0  0  0  0  0
  -38.0877  -11.6428  -89.7167 C   0  0  0  0  0  0  0  0  0  0  0  0
  -40.3092  -11.5933  -90.7544 C   0  0  0  0  0  0  0  0  0  0  0  0
  -39.7048  -11.6100  -91.9571 N   0  0  0  0  0  0  0  0  0  0  0  0
  -38.3965  -11.6580  -92.1031 N   0  0  0  0  0  0  0  0  0  0  0  0
  -37.5551  -11.6692  -91.0610 C   0  0  0  0  0  0  0  0  0  0  0  0
  -41.5186  -11.5591  -90.6810 O   0  0  0  0  0  0  0  0  0  0  0  0
  -41.1266  -11.5419  -87.6067 C   0  0  0  0  0  0  0  0  0  0  0  0
  -36.3066  -11.6261  -84.4829 C   0  0  0  0  0  0  0  0  0  0  0  0
  -36.3754  -10.1449  -84.1403 C   0  0  0  0  0  0  0  0  0  0  0  0
  -35.5305   -9.1072  -84.6516 C   0  0  0  0  0  0  0  0  0  0  0  0
  -36.0104   -7.9135  -84.0530 C   0  0  0  0  0  0  0  0  0  0  0  0
  -37.0374   -8.2658  -83.2869 N   0  0  0  0  0  0  0  0  0  0  0  0
  -37.2516   -9.5585  -83.3467 N   0  0  0  0  0  0  0  0  0  0  0  0
  -40.5192  -11.6179  -93.1564 C   0  0  0  0  0  0  0  0  0  0  0  0
  -40.8254  -13.1093  -93.3858 C   0  0  0  0  0  0  0  0  0  0  0  0
  -39.8057  -13.9498  -93.8317 C   0  0  0  0  0  0  0  0  0  0  0  0
  -40.0800  -15.3243  -94.0273 C   0  0  0  0  0  0  0  0  0  0  0  0
  -41.3847  -15.7595  -93.7461 C   0  0  0  0  0  0  0  0  0  0  0  0
  -42.3348  -14.8440  -93.2980 C   0  0  0  0  0  0  0  0  0  0  0  0
  -42.0330  -13.5648  -93.1247 N   0  0  0  0  0  0  0  0  0  0  0  0
  -43.6534  -15.2870  -93.0160 N   0  0  0  0  0  0  0  0  0  0  0  0
  1  2  2  0  0  0  0
  2  3  1  0  0  0  0
  3  4  2  0  0  0  0
  1  5  1  0  0  0  0
  4  5  1  0  0  0  0
  3  6  1  0  0  0  0
  6  7  1  0  0  0  0
  4  8  1  0  0  0  0
  7  8  2  0  0  0  0
  7  9  1  0  0  0  0
  9 10  1  0  0  0  0
 10 11  1  0  0  0  0
  8 12  1  0  0  0  0
 11 12  2  0  0  0  0
  9 13  2  0  0  0  0
  6 14  1  0  0  0  0
  1 15  1  0  0  0  0
 15 16  1  0  0  0  0
 16 17  1  0  0  0  0
 17 18  2  0  0  0  0
 18 19  1  0  0  0  0
 16 20  2  0  0  0  0
 19 20  1  0  0  0  0
 10 21  1  0  0  0  0
 21 22  1  0  0  0  0
 22 23  2  0  0  0  0
 23 24  1  0  0  0  0
 24 25  2  0  0  0  0
 25 26  1  0  0  0  0
 22 27  1  0  0  0  0
 26 27  2  0  0  0  0
 26 28  1  0  0  0  0
 29 30  2  0  0  0  0
 30 31  1  0  0  0  0
 31 32  2  0  0  0  0
 29 33  1  0  0  0  0
 32 33  1  0  0  0  0
 31 34  1  0  0  0  0
 34 35  1  0  0  0  0
 32 36  1  0  0  0  0
 35 36  2  0  0  0  0
 35 37  1  0  0  0  0
 37 38  1  0  0  0  0
 38 39  1  0  0  0  0
 36 40  1  0  0  0  0
 39 40  2  0  0  0  0
 37 41  2  0  0  0  0
 34 42  1  0  0  0  0
 29 43  1  0  0  0  0
 43 44  1  0  0  0  0
 44 45  1  0  0  0  0
 45 46  2  0  0  0  0
 46 47  1  0  0  0  0
 44 48  2  0  0  0  0
 47 48  1  0  0  0  0
 38 49  1  0  0  0  0
 49 50  1  0  0  0  0
 50 51  2  0  0  0  0
 51 52  1  0  0  0  0
 52 53  2  0  0  0  0
 53 54  1  0  0  0  0
 50 55  1  0  0  0  0
 54 55  2  0  0  0  0
 54 56  1  0  0  0  0
 57 58  2  0  0  0  0
 58 59  1  0  0  0  0
 59 60  2  0  0  0  0
 57 61  1  0  0  0  0
 60 61  1  0  0  0  0
 59 62  1  0  0  0  0
 62 63  1  0  0  0  0
 60 64  1  0  0  0  0
 63 64  2  0  0  0  0
 63 65  1  0  0  0  0
 65 66  1  0  0  0  0
 66 67  1  0  0  0  0
 64 68  1  0  0  0  0
 67 68  2  0  0  0  0
 65 69  2  0  0  0  0
 62 70  1  0  0  0  0
 57 71  1  0  0  0  0
 71 72  1  0  0  0  0
 72 73  1  0  0  0  0
 73 74  2  0  0  0  0
 74 75  1  0  0  0  0
 72 76  2  0  0  0  0
 75 76  1  0  0  0  0
 66 77  1  0  0  0  0
 77 78  1  0  0  0  0
 78 79  2  0  0  0  0
 79 80  1  0  0  0  0
 80 81  2  0  0  0  0
 81 82  1  0  0  0  0
 78 83  1  0  0  0  0
 82 83  2  0  0  0  0
 82 84  1  0  0  0  0
 85 86  2  0  0  0  0
 86 87  1  0  0  0  0
 87 88  2  0  0  0  0
 85 89  1  0  0  0  0
 88 89  1  0  0  0  0
 87 90  1  0  0  0  0
 90 91  1  0  0  0  0
 88 92  1  0  0  0  0
 91 92  2  0  0  0  0
 91 93  1  0  0  0  0
 93 94  1  0  0  0  0
 94 95  1  0  0  0  0
 92 96  1  0  0  0  0
 95 96  2  0  0  0  0
 93 97  2  0  0  0  0
 90 98  1  0  0  0  0
 85 99  1  0  0  0  0
 99100  1  0  0  0  0
100101  1  0  0  0  0
101102  2  0  0  0  0
102103  1  0  0  0  0
100104  2  0  0  0  0
103104  1  0  0  0  0
 94105  1  0  0  0  0
105106  1  0  0  0  0
106107  2  0  0  0  0
107108  1  0  0  0  0
108109  2  0  0  0  0
109110  1  0  0  0  0
106111  1  0  0  0  0
110111  2  0  0  0  0
110112  1  0  0  0  0
M  END
$$$$
