7XNK
  PyMOL3.1          3D                             0

228240  0  0  0  0  0  0  0  0999 V2000
  109.8560  109.3340  102.4020 N   0  0  0  0  0  0  0  0  0  0  0  0
  109.9400  108.7600  103.7990 C   0  0  0  0  0  0  0  0  0  0  0  0
  107.6180  107.9520  103.6910 C   0  0  0  0  0  0  0  0  0  0  0  0
  107.5100  108.4250  102.3550 C   0  0  0  0  0  0  0  0  0  0  0  0
  108.4080  109.5970  102.1010 C   0  0  0  0  0  0  0  0  0  0  0  0
  110.4170  107.0680  100.7820 C   0  0  0  0  0  0  0  0  0  0  0  0
  110.9930  106.0670  101.5140 C   0  0  0  0  0  0  0  0  0  0  0  0
  110.6660  104.7680  101.2440 C   0  0  0  0  0  0  0  0  0  0  0  0
  109.7800  104.4920  100.2460 C   0  0  0  0  0  0  0  0  0  0  0  0
  109.4350  103.0620   99.9580 C   0  0  0  0  0  0  0  0  0  0  0  0
  109.2070  105.4880   99.5110 C   0  0  0  0  0  0  0  0  0  0  0  0
  109.5310  106.7860   99.7820 C   0  0  0  0  0  0  0  0  0  0  0  0
  109.5360  112.3110  105.2500 C   0  0  0  0  0  0  0  0  0  0  0  0
  109.1240  114.5170  105.6630 C   0  0  0  0  0  0  0  0  0  0  0  0
  108.8760  115.9550  105.3200 C   0  0  0  0  0  0  0  0  0  0  0  0
  109.2870  116.4410  104.1290 C   0  0  0  0  0  0  0  0  0  0  0  0
  109.0480  117.7390  103.8070 C   0  0  0  0  0  0  0  0  0  0  0  0
  108.3900  118.5510  104.6820 C   0  0  0  0  0  0  0  0  0  0  0  0
  109.6510  109.8390  104.8230 C   0  0  0  0  0  0  0  0  0  0  0  0
  109.3130  109.5720  105.9050 O   0  0  0  0  0  0  0  0  0  0  0  0
  109.7940  111.1920  104.4140 N   0  0  0  0  0  0  0  0  0  0  0  0
  109.3620  113.5250  104.6580 N   0  0  0  0  0  0  0  0  0  0  0  0
  112.2240  108.9620  101.3800 O   0  0  0  0  0  0  0  0  0  0  0  0
  110.5720  109.5750   99.9380 O   0  0  0  0  0  0  0  0  0  0  0  0
  110.8120  108.7770  101.1250 S   0  0  0  0  0  0  0  0  0  0  0  0
  108.9620  107.6370  104.0340 C   0  0  0  0  0  0  0  0  0  0  0  0
  108.6500  120.4780  103.3340 C   0  0  0  0  0  0  0  0  0  0  0  0
  107.9720  118.0440  105.8650 C   0  0  0  0  0  0  0  0  0  0  0  0
  108.2100  116.7460  106.1850 C   0  0  0  0  0  0  0  0  0  0  0  0
  109.1240  113.9460  106.9330 C   0  0  0  0  0  0  0  0  0  0  0  0
  108.0960  119.8830  104.4460 O   0  0  0  0  0  0  0  0  0  0  0  0
  109.4080  112.3890  106.8490 S   0  0  0  0  0  0  0  0  0  0  0  0
  109.2190  106.9010  103.4910 H   0  0  0  0  0  0  0  0  0  0  0  0
  108.9880  107.3730  104.9540 H   0  0  0  0  0  0  0  0  0  0  0  0
  107.0980  107.1510  103.7660 H   0  0  0  0  0  0  0  0  0  0  0  0
  107.2820  108.6190  104.2850 H   0  0  0  0  0  0  0  0  0  0  0  0
  107.7560  107.7150  101.7680 H   0  0  0  0  0  0  0  0  0  0  0  0
  106.6040  108.6920  102.1930 H   0  0  0  0  0  0  0  0  0  0  0  0
  108.0910  110.3230  102.6360 H   0  0  0  0  0  0  0  0  0  0  0  0
  111.5860  106.2700  102.1890 H   0  0  0  0  0  0  0  0  0  0  0  0
  111.0360  104.0770  101.7260 H   0  0  0  0  0  0  0  0  0  0  0  0
  110.1870  102.5060  100.1830 H   0  0  0  0  0  0  0  0  0  0  0  0
  109.2180  102.9850   99.0240 H   0  0  0  0  0  0  0  0  0  0  0  0
  108.6770  102.8150  100.4950 H   0  0  0  0  0  0  0  0  0  0  0  0
  108.6100  105.2840   98.8380 H   0  0  0  0  0  0  0  0  0  0  0  0
  109.1540  107.4730   99.3000 H   0  0  0  0  0  0  0  0  0  0  0  0
  109.7330  115.8970  103.5530 H   0  0  0  0  0  0  0  0  0  0  0  0
  109.3390  118.0660  103.0070 H   0  0  0  0  0  0  0  0  0  0  0  0
  108.3020  120.0900  102.5350 H   0  0  0  0  0  0  0  0  0  0  0  0
  109.5980  120.3900  103.3530 H   0  0  0  0  0  0  0  0  0  0  0  0
  108.4390  121.4060  103.3330 H   0  0  0  0  0  0  0  0  0  0  0  0
  107.5270  118.5860  106.4500 H   0  0  0  0  0  0  0  0  0  0  0  0
  107.9330  116.4040  106.9870 H   0  0  0  0  0  0  0  0  0  0  0  0
  108.9870  114.4140  107.7040 H   0  0  0  0  0  0  0  0  0  0  0  0
  110.0270  111.3550  103.6230 H   0  0  0  0  0  0  0  0  0  0  0  0
  110.8260  108.4330  103.9280 H   0  0  0  0  0  0  0  0  0  0  0  0
  108.3520  109.8220  101.1690 H   0  0  0  0  0  0  0  0  0  0  0  0
  134.0280  109.8980  102.4020 N   0  0  0  0  0  0  0  0  0  0  0  0
  134.6030  109.9780  103.7990 C   0  0  0  0  0  0  0  0  0  0  0  0
  135.3950  107.6500  103.6900 C   0  0  0  0  0  0  0  0  0  0  0  0
  134.9210  107.5460  102.3540 C   0  0  0  0  0  0  0  0  0  0  0  0
  133.7550  108.4520  102.1000 C   0  0  0  0  0  0  0  0  0  0  0  0
  136.2980  110.4440  100.7820 C   0  0  0  0  0  0  0  0  0  0  0  0
  137.3020  111.0130  101.5140 C   0  0  0  0  0  0  0  0  0  0  0  0
  138.5990  110.6770  101.2440 C   0  0  0  0  0  0  0  0  0  0  0  0
  138.8690  109.7900  100.2460 C   0  0  0  0  0  0  0  0  0  0  0  0
  140.2970  109.4350   99.9570 C   0  0  0  0  0  0  0  0  0  0  0  0
  137.8690  109.2230   99.5110 C   0  0  0  0  0  0  0  0  0  0  0  0
  136.5730  109.5560   99.7820 C   0  0  0  0  0  0  0  0  0  0  0  0
  131.0490  109.5970  105.2500 C   0  0  0  0  0  0  0  0  0  0  0  0
  128.8410  109.2000  105.6630 C   0  0  0  0  0  0  0  0  0  0  0  0
  127.4010  108.9610  105.3200 C   0  0  0  0  0  0  0  0  0  0  0  0
  126.9170  109.3760  104.1290 C   0  0  0  0  0  0  0  0  0  0  0  0
  125.6170  109.1460  103.8070 C   0  0  0  0  0  0  0  0  0  0  0  0
  124.8020  108.4930  104.6830 C   0  0  0  0  0  0  0  0  0  0  0  0
  133.5220  109.6960  104.8230 C   0  0  0  0  0  0  0  0  0  0  0  0
  133.7860  109.3550  105.9050 O   0  0  0  0  0  0  0  0  0  0  0  0
  132.1700  109.8470  104.4140 N   0  0  0  0  0  0  0  0  0  0  0  0
  129.8340  109.4310  104.6580 N   0  0  0  0  0  0  0  0  0  0  0  0
  134.4160  112.2630  101.3800 O   0  0  0  0  0  0  0  0  0  0  0  0
  133.7910  110.6160   99.9390 O   0  0  0  0  0  0  0  0  0  0  0  0
  134.5910  110.8500  101.1250 S   0  0  0  0  0  0  0  0  0  0  0  0
  135.7190  108.9920  104.0340 C   0  0  0  0  0  0  0  0  0  0  0  0
  122.8760  108.7660  103.3340 C   0  0  0  0  0  0  0  0  0  0  0  0
  125.3050  108.0710  105.8650 C   0  0  0  0  0  0  0  0  0  0  0  0
  126.6050  108.3000  106.1850 C   0  0  0  0  0  0  0  0  0  0  0  0
  129.4120  109.1950  106.9330 C   0  0  0  0  0  0  0  0  0  0  0  0
  123.4680  108.2080  104.4460 O   0  0  0  0  0  0  0  0  0  0  0  0
  130.9700  109.4690  106.8490 S   0  0  0  0  0  0  0  0  0  0  0  0
  136.4570  109.2440  103.4910 H   0  0  0  0  0  0  0  0  0  0  0  0
  135.9830  109.0140  104.9540 H   0  0  0  0  0  0  0  0  0  0  0  0
  136.1920  107.1250  103.7640 H   0  0  0  0  0  0  0  0  0  0  0  0
  134.7260  107.3180  104.2840 H   0  0  0  0  0  0  0  0  0  0  0  0
  135.6320  107.7850  101.7660 H   0  0  0  0  0  0  0  0  0  0  0  0
  134.6470  106.6420  102.1920 H   0  0  0  0  0  0  0  0  0  0  0  0
  133.0280  108.1390  102.6370 H   0  0  0  0  0  0  0  0  0  0  0  0
  137.1040  111.6070  102.1900 H   0  0  0  0  0  0  0  0  0  0  0  0
  139.2930  111.0430  101.7250 H   0  0  0  0  0  0  0  0  0  0  0  0
  140.8620  110.1640  100.2300 H   0  0  0  0  0  0  0  0  0  0  0  0
  140.3840  109.2680   99.0140 H   0  0  0  0  0  0  0  0  0  0  0  0
  140.5230  108.6450  100.4540 H   0  0  0  0  0  0  0  0  0  0  0  0
  138.0690  108.6260   98.8380 H   0  0  0  0  0  0  0  0  0  0  0  0
  135.8840  109.1830   99.2990 H   0  0  0  0  0  0  0  0  0  0  0  0
  127.4650  109.8160  103.5510 H   0  0  0  0  0  0  0  0  0  0  0  0
  125.2940  109.4360  103.0060 H   0  0  0  0  0  0  0  0  0  0  0  0
  123.2640  108.4050  102.5430 H   0  0  0  0  0  0  0  0  0  0  0  0
  122.9700  109.7130  103.3480 H   0  0  0  0  0  0  0  0  0  0  0  0
  121.9480  108.5560  103.3330 H   0  0  0  0  0  0  0  0  0  0  0  0
  124.7610  107.6290  106.4490 H   0  0  0  0  0  0  0  0  0  0  0  0
  126.9450  108.0200  106.9860 H   0  0  0  0  0  0  0  0  0  0  0  0
  128.9420  109.0610  107.7030 H   0  0  0  0  0  0  0  0  0  0  0  0
  132.0070  110.0810  103.6220 H   0  0  0  0  0  0  0  0  0  0  0  0
  134.9370  110.8610  103.9280 H   0  0  0  0  0  0  0  0  0  0  0  0
  133.5290  108.3990  101.1690 H   0  0  0  0  0  0  0  0  0  0  0  0
  133.4680  134.0460  102.3940 N   0  0  0  0  0  0  0  0  0  0  0  0
  133.3880  134.6190  103.7910 C   0  0  0  0  0  0  0  0  0  0  0  0
  135.7150  135.4110  103.6840 C   0  0  0  0  0  0  0  0  0  0  0  0
  135.8200  134.9400  102.3480 C   0  0  0  0  0  0  0  0  0  0  0  0
  134.9140  133.7740  102.0910 C   0  0  0  0  0  0  0  0  0  0  0  0
  132.9220  136.3180  100.7760 C   0  0  0  0  0  0  0  0  0  0  0  0
  132.3520  137.3210  101.5100 C   0  0  0  0  0  0  0  0  0  0  0  0
  132.6880  138.6190  101.2420 C   0  0  0  0  0  0  0  0  0  0  0  0
  133.5750  138.8900  100.2440 C   0  0  0  0  0  0  0  0  0  0  0  0
  133.9290  140.3190   99.9580 C   0  0  0  0  0  0  0  0  0  0  0  0
  134.1420  137.8920   99.5080 C   0  0  0  0  0  0  0  0  0  0  0  0
  133.8100  136.5950   99.7770 C   0  0  0  0  0  0  0  0  0  0  0  0
  133.7700  131.0630  105.2370 C   0  0  0  0  0  0  0  0  0  0  0  0
  134.1670  128.8540  105.6460 C   0  0  0  0  0  0  0  0  0  0  0  0
  134.4060  127.4150  105.3010 C   0  0  0  0  0  0  0  0  0  0  0  0
  133.9920  126.9330  104.1100 C   0  0  0  0  0  0  0  0  0  0  0  0
  134.2230  125.6340  103.7860 C   0  0  0  0  0  0  0  0  0  0  0  0
  134.8760  124.8170  104.6610 C   0  0  0  0  0  0  0  0  0  0  0  0
  133.6700  133.5370  104.8130 C   0  0  0  0  0  0  0  0  0  0  0  0
  134.0100  133.7990  105.8960 O   0  0  0  0  0  0  0  0  0  0  0  0
  133.5190  132.1850  104.4020 N   0  0  0  0  0  0  0  0  0  0  0  0
  133.9360  129.8480  104.6430 N   0  0  0  0  0  0  0  0  0  0  0  0
  131.1030  134.4340  101.3710 O   0  0  0  0  0  0  0  0  0  0  0  0
  132.7510  133.8130   99.9290 O   0  0  0  0  0  0  0  0  0  0  0  0
  132.5160  134.6100  101.1170 S   0  0  0  0  0  0  0  0  0  0  0  0
  134.3730  135.7350  104.0280 C   0  0  0  0  0  0  0  0  0  0  0  0
  134.6030  122.8930  103.3090 C   0  0  0  0  0  0  0  0  0  0  0  0
  135.2970  125.3190  105.8440 C   0  0  0  0  0  0  0  0  0  0  0  0
  135.0670  126.6180  106.1660 C   0  0  0  0  0  0  0  0  0  0  0  0
  134.1710  129.4230  106.9170 C   0  0  0  0  0  0  0  0  0  0  0  0
  135.1620  123.4830  104.4220 O   0  0  0  0  0  0  0  0  0  0  0  0
  133.8970  130.9820  106.8360 S   0  0  0  0  0  0  0  0  0  0  0  0
  134.1200  136.4740  103.4870 H   0  0  0  0  0  0  0  0  0  0  0  0
  134.3500  135.9960  104.9490 H   0  0  0  0  0  0  0  0  0  0  0  0
  136.2410  136.2080  103.7610 H   0  0  0  0  0  0  0  0  0  0  0  0
  136.0460  134.7410  104.2760 H   0  0  0  0  0  0  0  0  0  0  0  0
  135.5820  135.6520  101.7590 H   0  0  0  0  0  0  0  0  0  0  0  0
  136.7240  134.6650  102.1870 H   0  0  0  0  0  0  0  0  0  0  0  0
  135.2270  133.0470  102.6280 H   0  0  0  0  0  0  0  0  0  0  0  0
  131.7580  137.1210  102.1850 H   0  0  0  0  0  0  0  0  0  0  0  0
  132.3220  139.3120  101.7240 H   0  0  0  0  0  0  0  0  0  0  0  0
  133.2180  140.8860  100.2720 H   0  0  0  0  0  0  0  0  0  0  0  0
  134.0540  140.4160   99.0100 H   0  0  0  0  0  0  0  0  0  0  0  0
  134.7440  140.5320  100.4200 H   0  0  0  0  0  0  0  0  0  0  0  0
  134.7400  138.0930   98.8360 H   0  0  0  0  0  0  0  0  0  0  0  0
  134.1830  135.9070   99.2940 H   0  0  0  0  0  0  0  0  0  0  0  0
  133.5510  127.4810  103.5330 H   0  0  0  0  0  0  0  0  0  0  0  0
  133.9320  125.3110  102.9850 H   0  0  0  0  0  0  0  0  0  0  0  0
  134.9650  123.2800  102.5170 H   0  0  0  0  0  0  0  0  0  0  0  0
  133.6570  122.9860  103.3240 H   0  0  0  0  0  0  0  0  0  0  0  0
  134.8130  121.9650  103.3090 H   0  0  0  0  0  0  0  0  0  0  0  0
  135.7390  124.7740  106.4270 H   0  0  0  0  0  0  0  0  0  0  0  0
  135.3470  126.9570  106.9670 H   0  0  0  0  0  0  0  0  0  0  0  0
  134.3050  128.9530  107.6870 H   0  0  0  0  0  0  0  0  0  0  0  0
  133.2850  132.0240  103.6100 H   0  0  0  0  0  0  0  0  0  0  0  0
  132.5040  134.9520  103.9210 H   0  0  0  0  0  0  0  0  0  0  0  0
  134.9680  133.5480  101.1600 H   0  0  0  0  0  0  0  0  0  0  0  0
  109.3420  133.4770  102.4060 N   0  0  0  0  0  0  0  0  0  0  0  0
  108.7660  133.3960  103.8030 C   0  0  0  0  0  0  0  0  0  0  0  0
  107.9640  135.7200  103.6910 C   0  0  0  0  0  0  0  0  0  0  0  0
  108.4380  135.8250  102.3560 C   0  0  0  0  0  0  0  0  0  0  0  0
  109.6080  134.9240  102.1030 C   0  0  0  0  0  0  0  0  0  0  0  0
  107.0750  132.9190  100.7850 C   0  0  0  0  0  0  0  0  0  0  0  0
  106.0720  132.3460  101.5170 C   0  0  0  0  0  0  0  0  0  0  0  0
  104.7740  132.6770  101.2450 C   0  0  0  0  0  0  0  0  0  0  0  0
  104.5010  133.5620  100.2470 C   0  0  0  0  0  0  0  0  0  0  0  0
  103.0720  133.9100   99.9570 C   0  0  0  0  0  0  0  0  0  0  0  0
  105.4990  134.1320   99.5120 C   0  0  0  0  0  0  0  0  0  0  0  0
  106.7960  133.8050   99.7840 C   0  0  0  0  0  0  0  0  0  0  0  0
  112.3170  133.7940  105.2560 C   0  0  0  0  0  0  0  0  0  0  0  0
  114.5240  134.2010  105.6690 C   0  0  0  0  0  0  0  0  0  0  0  0
  115.9620  134.4450  105.3260 C   0  0  0  0  0  0  0  0  0  0  0  0
  116.4490  134.0310  104.1370 C   0  0  0  0  0  0  0  0  0  0  0  0
  117.7480  134.2670  103.8150 C   0  0  0  0  0  0  0  0  0  0  0  0
  118.5600  134.9240  104.6900 C   0  0  0  0  0  0  0  0  0  0  0  0
  109.8450  133.6830  104.8270 C   0  0  0  0  0  0  0  0  0  0  0  0
  109.5790  134.0240  105.9080 O   0  0  0  0  0  0  0  0  0  0  0  0
  111.1980  133.5370  104.4180 N   0  0  0  0  0  0  0  0  0  0  0  0
  113.5320  133.9640  104.6640 N   0  0  0  0  0  0  0  0  0  0  0  0
  108.9650  131.1090  101.3860 O   0  0  0  0  0  0  0  0  0  0  0  0
  109.5830  132.7580   99.9430 O   0  0  0  0  0  0  0  0  0  0  0  0
  108.7830  132.5210  101.1290 S   0  0  0  0  0  0  0  0  0  0  0  0
  107.6460  134.3770  104.0360 C   0  0  0  0  0  0  0  0  0  0  0  0
  120.4870  134.6580  103.3440 C   0  0  0  0  0  0  0  0  0  0  0  0
  118.0540  135.3450  105.8720 C   0  0  0  0  0  0  0  0  0  0  0  0
  116.7550  135.1100  106.1920 C   0  0  0  0  0  0  0  0  0  0  0  0
  113.9520  134.2040  106.9390 C   0  0  0  0  0  0  0  0  0  0  0  0
  119.8930  135.2150  104.4550 O   0  0  0  0  0  0  0  0  0  0  0  0
  112.3940  133.9230  106.8550 S   0  0  0  0  0  0  0  0  0  0  0  0
  106.9090  134.1210  103.4920 H   0  0  0  0  0  0  0  0  0  0  0  0
  107.3810  134.3530  104.9560 H   0  0  0  0  0  0  0  0  0  0  0  0
  107.1640  136.2410  103.7650 H   0  0  0  0  0  0  0  0  0  0  0  0
  108.6310  136.0550  104.2850 H   0  0  0  0  0  0  0  0  0  0  0  0
  107.7290  135.5820  101.7670 H   0  0  0  0  0  0  0  0  0  0  0  0
  108.7080  136.7300  102.1920 H   0  0  0  0  0  0  0  0  0  0  0  0
  110.3340  135.2400  102.6390 H   0  0  0  0  0  0  0  0  0  0  0  0
  106.2730  131.7540  102.1940 H   0  0  0  0  0  0  0  0  0  0  0  0
  104.0810  132.3090  101.7270 H   0  0  0  0  0  0  0  0  0  0  0  0
  102.5170  133.1540  100.1710 H   0  0  0  0  0  0  0  0  0  0  0  0
  102.9920  134.1380   99.0250 H   0  0  0  0  0  0  0  0  0  0  0  0
  102.8210  134.6580  100.5050 H   0  0  0  0  0  0  0  0  0  0  0  0
  105.2960  134.7280   98.8390 H   0  0  0  0  0  0  0  0  0  0  0  0
  107.4840  134.1810   99.3010 H   0  0  0  0  0  0  0  0  0  0  0  0
  115.9030  133.5870  103.5600 H   0  0  0  0  0  0  0  0  0  0  0  0
  118.0730  133.9760  103.0140 H   0  0  0  0  0  0  0  0  0  0  0  0
  120.0970  135.0100  102.5490 H   0  0  0  0  0  0  0  0  0  0  0  0
  120.3990  133.7100  103.3610 H   0  0  0  0  0  0  0  0  0  0  0  0
  121.4140  134.8700  103.3410 H   0  0  0  0  0  0  0  0  0  0  0  0
  118.5960  135.7900  106.4570 H   0  0  0  0  0  0  0  0  0  0  0  0
  116.4130  135.3890  106.9920 H   0  0  0  0  0  0  0  0  0  0  0  0
  114.4200  134.3390  107.7100 H   0  0  0  0  0  0  0  0  0  0  0  0
  111.3620  133.3020  103.6280 H   0  0  0  0  0  0  0  0  0  0  0  0
  108.4370  132.5110  103.9330 H   0  0  0  0  0  0  0  0  0  0  0  0
  109.8340  134.9770  101.1710 H   0  0  0  0  0  0  0  0  0  0  0  0
  1  2  1  0  0  0  0
  3  4  1  0  0  0  0
  1  5  1  0  0  0  0
  4  5  1  0  0  0  0
  6  7  2  0  0  0  0
  7  8  1  0  0  0  0
  8  9  2  0  0  0  0
  9 10  1  0  0  0  0
  9 11  1  0  0  0  0
  6 12  1  0  0  0  0
 11 12  2  0  0  0  0
 14 15  1  0  0  0  0
 15 16  2  0  0  0  0
 16 17  1  0  0  0  0
 17 18  2  0  0  0  0
  2 19  1  0  0  0  0
 19 20  2  0  0  0  0
 13 21  1  0  0  0  0
 19 21  1  0  0  0  0
 13 22  2  0  0  0  0
 14 22  1  0  0  0  0
  1 25  1  0  0  0  0
  6 25  1  0  0  0  0
 23 25  2  0  0  0  0
 24 25  2  0  0  0  0
  2 26  1  0  0  0  0
  3 26  1  0  0  0  0
 18 28  1  0  0  0  0
 15 29  1  0  0  0  0
 28 29  2  0  0  0  0
 14 30  2  0  0  0  0
 18 31  1  0  0  0  0
 27 31  1  0  0  0  0
 13 32  1  0  0  0  0
 30 32  1  0  0  0  0
 26 33  1  0  0  0  0
 26 34  1  0  0  0  0
  3 35  1  0  0  0  0
  3 36  1  0  0  0  0
  4 37  1  0  0  0  0
  4 38  1  0  0  0  0
  5 39  1  0  0  0  0
  7 40  1  0  0  0  0
  8 41  1  0  0  0  0
 10 42  1  0  0  0  0
 10 43  1  0  0  0  0
 10 44  1  0  0  0  0
 11 45  1  0  0  0  0
 12 46  1  0  0  0  0
 16 47  1  0  0  0  0
 17 48  1  0  0  0  0
 27 49  1  0  0  0  0
 27 50  1  0  0  0  0
 27 51  1  0  0  0  0
 28 52  1  0  0  0  0
 29 53  1  0  0  0  0
 30 54  1  0  0  0  0
 21 55  1  0  0  0  0
  2 56  1  0  0  0  0
  5 57  1  0  0  0  0
 58 59  1  0  0  0  0
 60 61  1  0  0  0  0
 58 62  1  0  0  0  0
 61 62  1  0  0  0  0
 63 64  2  0  0  0  0
 64 65  1  0  0  0  0
 65 66  2  0  0  0  0
 66 67  1  0  0  0  0
 66 68  1  0  0  0  0
 63 69  1  0  0  0  0
 68 69  2  0  0  0  0
 71 72  1  0  0  0  0
 72 73  2  0  0  0  0
 73 74  1  0  0  0  0
 74 75  2  0  0  0  0
 59 76  1  0  0  0  0
 76 77  2  0  0  0  0
 70 78  1  0  0  0  0
 76 78  1  0  0  0  0
 70 79  2  0  0  0  0
 71 79  1  0  0  0  0
 58 82  1  0  0  0  0
 63 82  1  0  0  0  0
 80 82  2  0  0  0  0
 81 82  2  0  0  0  0
 59 83  1  0  0  0  0
 60 83  1  0  0  0  0
 75 85  1  0  0  0  0
 72 86  1  0  0  0  0
 85 86  2  0  0  0  0
 71 87  2  0  0  0  0
 75 88  1  0  0  0  0
 84 88  1  0  0  0  0
 70 89  1  0  0  0  0
 87 89  1  0  0  0  0
 83 90  1  0  0  0  0
 83 91  1  0  0  0  0
 60 92  1  0  0  0  0
 60 93  1  0  0  0  0
 61 94  1  0  0  0  0
 61 95  1  0  0  0  0
 62 96  1  0  0  0  0
 64 97  1  0  0  0  0
 65 98  1  0  0  0  0
 67 99  1  0  0  0  0
 67100  1  0  0  0  0
 67101  1  0  0  0  0
 68102  1  0  0  0  0
 69103  1  0  0  0  0
 73104  1  0  0  0  0
 74105  1  0  0  0  0
 84106  1  0  0  0  0
 84107  1  0  0  0  0
 84108  1  0  0  0  0
 85109  1  0  0  0  0
 86110  1  0  0  0  0
 87111  1  0  0  0  0
 78112  1  0  0  0  0
 59113  1  0  0  0  0
 62114  1  0  0  0  0
115116  1  0  0  0  0
117118  1  0  0  0  0
115119  1  0  0  0  0
118119  1  0  0  0  0
120121  2  0  0  0  0
121122  1  0  0  0  0
122123  2  0  0  0  0
123124  1  0  0  0  0
123125  1  0  0  0  0
120126  1  0  0  0  0
125126  2  0  0  0  0
128129  1  0  0  0  0
129130  2  0  0  0  0
130131  1  0  0  0  0
131132  2  0  0  0  0
116133  1  0  0  0  0
133134  2  0  0  0  0
127135  1  0  0  0  0
133135  1  0  0  0  0
127136  2  0  0  0  0
128136  1  0  0  0  0
115139  1  0  0  0  0
120139  1  0  0  0  0
137139  2  0  0  0  0
138139  2  0  0  0  0
116140  1  0  0  0  0
117140  1  0  0  0  0
132142  1  0  0  0  0
129143  1  0  0  0  0
142143  2  0  0  0  0
128144  2  0  0  0  0
132145  1  0  0  0  0
141145  1  0  0  0  0
127146  1  0  0  0  0
144146  1  0  0  0  0
140147  1  0  0  0  0
140148  1  0  0  0  0
117149  1  0  0  0  0
117150  1  0  0  0  0
118151  1  0  0  0  0
118152  1  0  0  0  0
119153  1  0  0  0  0
121154  1  0  0  0  0
122155  1  0  0  0  0
124156  1  0  0  0  0
124157  1  0  0  0  0
124158  1  0  0  0  0
125159  1  0  0  0  0
126160  1  0  0  0  0
130161  1  0  0  0  0
131162  1  0  0  0  0
141163  1  0  0  0  0
141164  1  0  0  0  0
141165  1  0  0  0  0
142166  1  0  0  0  0
143167  1  0  0  0  0
144168  1  0  0  0  0
135169  1  0  0  0  0
116170  1  0  0  0  0
119171  1  0  0  0  0
172173  1  0  0  0  0
174175  1  0  0  0  0
172176  1  0  0  0  0
175176  1  0  0  0  0
177178  2  0  0  0  0
178179  1  0  0  0  0
179180  2  0  0  0  0
180181  1  0  0  0  0
180182  1  0  0  0  0
177183  1  0  0  0  0
182183  2  0  0  0  0
185186  1  0  0  0  0
186187  2  0  0  0  0
187188  1  0  0  0  0
188189  2  0  0  0  0
173190  1  0  0  0  0
190191  2  0  0  0  0
184192  1  0  0  0  0
190192  1  0  0  0  0
184193  2  0  0  0  0
185193  1  0  0  0  0
172196  1  0  0  0  0
177196  1  0  0  0  0
194196  2  0  0  0  0
195196  2  0  0  0  0
173197  1  0  0  0  0
174197  1  0  0  0  0
189199  1  0  0  0  0
186200  1  0  0  0  0
199200  2  0  0  0  0
185201  2  0  0  0  0
189202  1  0  0  0  0
198202  1  0  0  0  0
184203  1  0  0  0  0
201203  1  0  0  0  0
197204  1  0  0  0  0
197205  1  0  0  0  0
174206  1  0  0  0  0
174207  1  0  0  0  0
175208  1  0  0  0  0
175209  1  0  0  0  0
176210  1  0  0  0  0
178211  1  0  0  0  0
179212  1  0  0  0  0
181213  1  0  0  0  0
181214  1  0  0  0  0
181215  1  0  0  0  0
182216  1  0  0  0  0
183217  1  0  0  0  0
187218  1  0  0  0  0
188219  1  0  0  0  0
198220  1  0  0  0  0
198221  1  0  0  0  0
198222  1  0  0  0  0
199223  1  0  0  0  0
200224  1  0  0  0  0
201225  1  0  0  0  0
192226  1  0  0  0  0
173227  1  0  0  0  0
176228  1  0  0  0  0
M  END
$$$$
