8ZP2
  PyMOL3.1          3D                             0

 40 41  0  0  0  0  0  0  0  0999 V2000
  131.8930  124.3500  129.6330 C   0  0  0  0  0  0  0  0  0  0  0  0
  132.2130  124.6400  131.0960 C   0  0  0  0  0  0  0  0  0  0  0  0
  131.9290  123.6820  132.0550 C   0  0  0  0  0  0  0  0  0  0  0  0
  132.2090  123.9300  133.3870 C   0  0  0  0  0  0  0  0  0  0  0  0
  132.7820  125.1320  133.7580 C   0  0  0  0  0  0  0  0  0  0  0  0
  133.0690  126.0890  132.8010 C   0  0  0  0  0  0  0  0  0  0  0  0
  132.7900  125.8470  131.4660 C   0  0  0  0  0  0  0  0  0  0  0  0
  133.0750  126.8120  130.4880 O   0  0  0  0  0  0  0  0  0  0  0  0
  134.3810  127.3250  130.4520 C   0  0  0  0  0  0  0  0  0  0  0  0
  134.4530  128.4580  129.4320 C   0  0  0  0  0  0  0  0  0  0  0  0
  133.4000  129.5170  129.7270 C   0  0  0  0  0  0  0  0  0  0  0  0
  133.5440  130.6010  128.7750 N   0  0  0  0  0  0  0  0  0  0  0  0
  132.6050  130.4010  127.6920 C   0  0  0  0  0  0  0  0  0  0  0  0
  135.3900  126.2670  130.0110 C   0  0  0  0  0  0  0  0  0  0  0  0
  135.1170  125.4480  128.9280 C   0  0  0  0  0  0  0  0  0  0  0  0
  136.0390  124.4990  128.5270 C   0  0  0  0  0  0  0  0  0  0  0  0
  137.2390  124.3700  129.2040 C   0  0  0  0  0  0  0  0  0  0  0  0
  137.5160  125.1910  130.2830 C   0  0  0  0  0  0  0  0  0  0  0  0
  136.5930  126.1410  130.6840 C   0  0  0  0  0  0  0  0  0  0  0  0
  134.2850  128.0580  128.4400 H   0  0  0  0  0  0  0  0  0  0  0  0
  135.4360  128.9110  129.4720 H   0  0  0  0  0  0  0  0  0  0  0  0
  133.3510  131.4720  129.2280 H   0  0  0  0  0  0  0  0  0  0  0  0
  132.8310  131.0810  126.8810 H   0  0  0  0  0  0  0  0  0  0  0  0
  132.6810  129.3800  127.3410 H   0  0  0  0  0  0  0  0  0  0  0  0
  131.6010  130.5860  128.0490 H   0  0  0  0  0  0  0  0  0  0  0  0
  134.1780  125.5490  128.3970 H   0  0  0  0  0  0  0  0  0  0  0  0
  137.9600  123.6250  128.8910 H   0  0  0  0  0  0  0  0  0  0  0  0
  131.0100  123.7250  129.5740 H   0  0  0  0  0  0  0  0  0  0  0  0
  131.7090  125.2810  129.1110 H   0  0  0  0  0  0  0  0  0  0  0  0
  132.7290  123.8380  129.1740 H   0  0  0  0  0  0  0  0  0  0  0  0
  131.4790  122.7410  131.7620 H   0  0  0  0  0  0  0  0  0  0  0  0
  131.9860  123.1820  134.1370 H   0  0  0  0  0  0  0  0  0  0  0  0
  133.0040  125.3260  134.8000 H   0  0  0  0  0  0  0  0  0  0  0  0
  133.5170  127.0290  133.0970 H   0  0  0  0  0  0  0  0  0  0  0  0
  134.6600  127.7100  131.4250 H   0  0  0  0  0  0  0  0  0  0  0  0
  132.4120  129.0840  129.6390 H   0  0  0  0  0  0  0  0  0  0  0  0
  133.5450  129.8920  130.7300 H   0  0  0  0  0  0  0  0  0  0  0  0
  135.8220  123.8550  127.6840 H   0  0  0  0  0  0  0  0  0  0  0  0
  138.4540  125.0890  130.8130 H   0  0  0  0  0  0  0  0  0  0  0  0
  136.8110  126.7840  131.5280 H   0  0  0  0  0  0  0  0  0  0  0  0
  1  2  1  0  0  0  0
  2  3  1  0  0  0  0
  3  4  2  0  0  0  0
  4  5  1  0  0  0  0
  5  6  2  0  0  0  0
  2  7  2  0  0  0  0
  6  7  1  0  0  0  0
  7  8  1  0  0  0  0
  8  9  1  0  0  0  0
  9 10  1  0  0  0  0
 10 11  1  0  0  0  0
 11 12  1  0  0  0  0
 12 13  1  0  0  0  0
  9 14  1  0  0  0  0
 14 15  2  0  0  0  0
 15 16  1  0  0  0  0
 16 17  2  0  0  0  0
 17 18  1  0  0  0  0
 14 19  1  0  0  0  0
 18 19  2  0  0  0  0
 10 20  1  0  0  0  0
 10 21  1  0  0  0  0
 12 22  1  0  0  0  0
 13 23  1  0  0  0  0
 13 24  1  0  0  0  0
 13 25  1  0  0  0  0
 15 26  1  0  0  0  0
 17 27  1  0  0  0  0
  1 28  1  0  0  0  0
  1 29  1  0  0  0  0
  1 30  1  0  0  0  0
  3 31  1  0  0  0  0
  4 32  1  0  0  0  0
  5 33  1  0  0  0  0
  6 34  1  0  0  0  0
  9 35  1  0  0  0  0
 11 36  1  0  0  0  0
 11 37  1  0  0  0  0
 16 38  1  0  0  0  0
 18 39  1  0  0  0  0
 19 40  1  0  0  0  0
M  END
$$$$
