7D4Q
  PyMOL3.1          3D                             0

128140  0  0  0  0  0  0  0  0999 V2000
  124.7480  139.1740  124.7070 Cl  0  0  0  0  0  0  0  0  0  0  0  0
  127.2150  136.3920  129.7530 Cl  0  0  0  0  0  0  0  0  0  0  0  0
  130.4230  140.6960  129.2770 O   0  0  0  0  0  0  0  0  0  0  0  0
  132.1300  139.7790  124.1190 O   0  0  0  0  0  0  0  0  0  0  0  0
  134.6100  136.2360  125.5030 O   0  0  0  0  0  0  0  0  0  0  0  0
  133.0060  138.3860  120.4570 O   0  0  0  0  0  0  0  0  0  0  0  0
  131.2290  140.2250  127.0100 N   0  0  0  0  0  0  0  0  0  0  0  0
  133.3990  137.9940  124.6850 N   0  0  0  0  0  0  0  0  0  0  0  0
  133.4320  137.3560  127.1200 N   0  0  0  0  0  0  0  0  0  0  0  0
  131.9500  138.9000  128.5960 N   0  0  0  0  0  0  0  0  0  0  0  0
  132.0430  139.3070  126.4500 C   0  0  0  0  0  0  0  0  0  0  0  0
  132.4910  138.4900  127.4370 C   0  0  0  0  0  0  0  0  0  0  0  0
  132.5080  139.0710  124.9900 C   0  0  0  0  0  0  0  0  0  0  0  0
  133.8390  137.7780  123.3200 C   0  0  0  0  0  0  0  0  0  0  0  0
  130.5200  141.2970  126.3310 C   0  0  0  0  0  0  0  0  0  0  0  0
  133.8690  137.1300  125.7430 C   0  0  0  0  0  0  0  0  0  0  0  0
  131.1680  139.9700  128.3370 C   0  0  0  0  0  0  0  0  0  0  0  0
  132.7140  137.1730  122.4890 C   0  0  0  0  0  0  0  0  0  0  0  0
  129.1340  140.7950  125.9440 C   0  0  0  0  0  0  0  0  0  0  0  0
  133.9070  136.4850  128.1800 C   0  0  0  0  0  0  0  0  0  0  0  0
  133.1920  137.1270  121.0410 C   0  0  0  0  0  0  0  0  0  0  0  0
  127.9570  140.9780  126.9020 C   0  0  0  0  0  0  0  0  0  0  0  0
  128.9270  140.0960  124.6020 C   0  0  0  0  0  0  0  0  0  0  0  0
  129.7420  139.8170  130.1250 C   0  0  0  0  0  0  0  0  0  0  0  0
  126.5690  140.4680  126.5140 C   0  0  0  0  0  0  0  0  0  0  0  0
  127.5410  139.5880  124.2140 C   0  0  0  0  0  0  0  0  0  0  0  0
  126.3640  139.7730  125.1690 C   0  0  0  0  0  0  0  0  0  0  0  0
  128.9190  138.6810  129.5420 C   0  0  0  0  0  0  0  0  0  0  0  0
  129.8220  140.0060  131.6380 C   0  0  0  0  0  0  0  0  0  0  0  0
  128.1740  137.7240  130.4560 C   0  0  0  0  0  0  0  0  0  0  0  0
  129.0710  139.0450  132.5680 C   0  0  0  0  0  0  0  0  0  0  0  0
  128.2450  137.8990  131.9710 C   0  0  0  0  0  0  0  0  0  0  0  0
  139.1750  170.8150  124.7080 Cl  0  0  0  0  0  0  0  0  0  0  0  0
  136.3920  168.3480  129.7540 Cl  0  0  0  0  0  0  0  0  0  0  0  0
  140.6970  165.1400  129.2780 O   0  0  0  0  0  0  0  0  0  0  0  0
  139.7800  163.4330  124.1200 O   0  0  0  0  0  0  0  0  0  0  0  0
  136.2370  160.9530  125.5040 O   0  0  0  0  0  0  0  0  0  0  0  0
  138.3870  162.5570  120.4580 O   0  0  0  0  0  0  0  0  0  0  0  0
  140.2260  164.3340  127.0110 N   0  0  0  0  0  0  0  0  0  0  0  0
  137.9950  162.1640  124.6860 N   0  0  0  0  0  0  0  0  0  0  0  0
  137.3570  162.1310  127.1210 N   0  0  0  0  0  0  0  0  0  0  0  0
  138.9010  163.6130  128.5970 N   0  0  0  0  0  0  0  0  0  0  0  0
  139.3080  163.5200  126.4510 C   0  0  0  0  0  0  0  0  0  0  0  0
  138.4910  163.0720  127.4380 C   0  0  0  0  0  0  0  0  0  0  0  0
  139.0720  163.0550  124.9910 C   0  0  0  0  0  0  0  0  0  0  0  0
  137.7790  161.7240  123.3210 C   0  0  0  0  0  0  0  0  0  0  0  0
  141.2980  165.0430  126.3320 C   0  0  0  0  0  0  0  0  0  0  0  0
  137.1310  161.6940  125.7440 C   0  0  0  0  0  0  0  0  0  0  0  0
  139.9710  164.3950  128.3380 C   0  0  0  0  0  0  0  0  0  0  0  0
  137.1740  162.8490  122.4900 C   0  0  0  0  0  0  0  0  0  0  0  0
  140.7950  166.4290  125.9450 C   0  0  0  0  0  0  0  0  0  0  0  0
  136.4860  161.6560  128.1810 C   0  0  0  0  0  0  0  0  0  0  0  0
  137.1280  162.3710  121.0420 C   0  0  0  0  0  0  0  0  0  0  0  0
  140.9780  167.6060  126.9030 C   0  0  0  0  0  0  0  0  0  0  0  0
  140.0960  166.6360  124.6030 C   0  0  0  0  0  0  0  0  0  0  0  0
  139.8180  165.8210  130.1260 C   0  0  0  0  0  0  0  0  0  0  0  0
  140.4690  168.9940  126.5150 C   0  0  0  0  0  0  0  0  0  0  0  0
  139.5890  168.0220  124.2150 C   0  0  0  0  0  0  0  0  0  0  0  0
  139.7740  169.1990  125.1700 C   0  0  0  0  0  0  0  0  0  0  0  0
  138.6820  166.6440  129.5430 C   0  0  0  0  0  0  0  0  0  0  0  0
  140.0070  165.7410  131.6390 C   0  0  0  0  0  0  0  0  0  0  0  0
  137.7240  167.3890  130.4570 C   0  0  0  0  0  0  0  0  0  0  0  0
  139.0460  166.4920  132.5690 C   0  0  0  0  0  0  0  0  0  0  0  0
  137.9000  167.3180  131.9720 C   0  0  0  0  0  0  0  0  0  0  0  0
  170.8160  156.3880  124.7080 Cl  0  0  0  0  0  0  0  0  0  0  0  0
  168.3490  159.1700  129.7540 Cl  0  0  0  0  0  0  0  0  0  0  0  0
  165.1400  154.8660  129.2780 O   0  0  0  0  0  0  0  0  0  0  0  0
  163.4340  155.7830  124.1200 O   0  0  0  0  0  0  0  0  0  0  0  0
  160.9540  159.3260  125.5040 O   0  0  0  0  0  0  0  0  0  0  0  0
  162.5580  157.1760  120.4580 O   0  0  0  0  0  0  0  0  0  0  0  0
  164.3350  155.3370  127.0110 N   0  0  0  0  0  0  0  0  0  0  0  0
  162.1650  157.5680  124.6860 N   0  0  0  0  0  0  0  0  0  0  0  0
  162.1320  158.2060  127.1210 N   0  0  0  0  0  0  0  0  0  0  0  0
  163.6140  156.6620  128.5970 N   0  0  0  0  0  0  0  0  0  0  0  0
  163.5210  156.2550  126.4510 C   0  0  0  0  0  0  0  0  0  0  0  0
  163.0730  157.0720  127.4380 C   0  0  0  0  0  0  0  0  0  0  0  0
  163.0560  156.4910  124.9910 C   0  0  0  0  0  0  0  0  0  0  0  0
  161.7250  157.7840  123.3210 C   0  0  0  0  0  0  0  0  0  0  0  0
  165.0430  154.2650  126.3320 C   0  0  0  0  0  0  0  0  0  0  0  0
  161.6950  158.4320  125.7440 C   0  0  0  0  0  0  0  0  0  0  0  0
  164.3960  155.5920  128.3380 C   0  0  0  0  0  0  0  0  0  0  0  0
  162.8500  158.3890  122.4900 C   0  0  0  0  0  0  0  0  0  0  0  0
  166.4300  154.7680  125.9450 C   0  0  0  0  0  0  0  0  0  0  0  0
  161.6570  159.0770  128.1810 C   0  0  0  0  0  0  0  0  0  0  0  0
  162.3720  158.4350  121.0420 C   0  0  0  0  0  0  0  0  0  0  0  0
  167.6060  154.5850  126.9030 C   0  0  0  0  0  0  0  0  0  0  0  0
  166.6370  155.4670  124.6030 C   0  0  0  0  0  0  0  0  0  0  0  0
  165.8220  155.7450  130.1260 C   0  0  0  0  0  0  0  0  0  0  0  0
  168.9950  155.0940  126.5150 C   0  0  0  0  0  0  0  0  0  0  0  0
  168.0230  155.9750  124.2150 C   0  0  0  0  0  0  0  0  0  0  0  0
  169.2000  155.7900  125.1700 C   0  0  0  0  0  0  0  0  0  0  0  0
  166.6450  156.8810  129.5430 C   0  0  0  0  0  0  0  0  0  0  0  0
  165.7410  155.5560  131.6390 C   0  0  0  0  0  0  0  0  0  0  0  0
  167.3900  157.8390  130.4570 C   0  0  0  0  0  0  0  0  0  0  0  0
  166.4930  156.5170  132.5690 C   0  0  0  0  0  0  0  0  0  0  0  0
  167.3190  157.6630  131.9720 C   0  0  0  0  0  0  0  0  0  0  0  0
  156.3890  124.7470  124.7070 Cl  0  0  0  0  0  0  0  0  0  0  0  0
  159.1710  127.2140  129.7540 Cl  0  0  0  0  0  0  0  0  0  0  0  0
  154.8670  130.4230  129.2780 O   0  0  0  0  0  0  0  0  0  0  0  0
  155.7840  132.1300  124.1200 O   0  0  0  0  0  0  0  0  0  0  0  0
  159.3270  134.6090  125.5040 O   0  0  0  0  0  0  0  0  0  0  0  0
  157.1770  133.0060  120.4580 O   0  0  0  0  0  0  0  0  0  0  0  0
  155.3380  131.2290  127.0110 N   0  0  0  0  0  0  0  0  0  0  0  0
  157.5690  133.3980  124.6860 N   0  0  0  0  0  0  0  0  0  0  0  0
  158.2070  133.4310  127.1210 N   0  0  0  0  0  0  0  0  0  0  0  0
  156.6630  131.9490  128.5970 N   0  0  0  0  0  0  0  0  0  0  0  0
  156.2560  132.0420  126.4510 C   0  0  0  0  0  0  0  0  0  0  0  0
  157.0730  132.4900  127.4380 C   0  0  0  0  0  0  0  0  0  0  0  0
  156.4920  132.5070  124.9910 C   0  0  0  0  0  0  0  0  0  0  0  0
  157.7850  133.8380  123.3210 C   0  0  0  0  0  0  0  0  0  0  0  0
  154.2660  130.5200  126.3320 C   0  0  0  0  0  0  0  0  0  0  0  0
  158.4330  133.8680  125.7440 C   0  0  0  0  0  0  0  0  0  0  0  0
  155.5930  131.1670  128.3380 C   0  0  0  0  0  0  0  0  0  0  0  0
  158.3900  132.7130  122.4900 C   0  0  0  0  0  0  0  0  0  0  0  0
  154.7690  129.1340  125.9450 C   0  0  0  0  0  0  0  0  0  0  0  0
  159.0780  133.9060  128.1810 C   0  0  0  0  0  0  0  0  0  0  0  0
  158.4360  133.1910  121.0420 C   0  0  0  0  0  0  0  0  0  0  0  0
  154.5850  127.9570  126.9020 C   0  0  0  0  0  0  0  0  0  0  0  0
  155.4680  128.9270  124.6030 C   0  0  0  0  0  0  0  0  0  0  0  0
  155.7460  129.7410  130.1260 C   0  0  0  0  0  0  0  0  0  0  0  0
  155.0950  126.5690  126.5140 C   0  0  0  0  0  0  0  0  0  0  0  0
  155.9750  127.5410  124.2150 C   0  0  0  0  0  0  0  0  0  0  0  0
  155.7900  126.3640  125.1690 C   0  0  0  0  0  0  0  0  0  0  0  0
  156.8810  128.9180  129.5430 C   0  0  0  0  0  0  0  0  0  0  0  0
  155.5560  129.8210  131.6390 C   0  0  0  0  0  0  0  0  0  0  0  0
  157.8390  128.1730  130.4570 C   0  0  0  0  0  0  0  0  0  0  0  0
  156.5170  129.0700  132.5690 C   0  0  0  0  0  0  0  0  0  0  0  0
  157.6630  128.2440  131.9720 C   0  0  0  0  0  0  0  0  0  0  0  0
  7 11  1  0  0  0  0
  9 12  1  0  0  0  0
 10 12  1  0  0  0  0
 11 12  2  0  0  0  0
  4 13  2  0  0  0  0
  8 13  1  0  0  0  0
 11 13  1  0  0  0  0
  8 14  1  0  0  0  0
  7 15  1  0  0  0  0
  5 16  2  0  0  0  0
  8 16  1  0  0  0  0
  9 16  1  0  0  0  0
  3 17  1  0  0  0  0
  7 17  1  0  0  0  0
 10 17  2  0  0  0  0
 14 18  1  0  0  0  0
 15 19  1  0  0  0  0
  9 20  1  0  0  0  0
  6 21  1  0  0  0  0
 18 21  1  0  0  0  0
 19 22  2  0  0  0  0
 19 23  1  0  0  0  0
  3 24  1  0  0  0  0
 22 25  1  0  0  0  0
 23 26  2  0  0  0  0
  1 27  1  0  0  0  0
 25 27  2  0  0  0  0
 26 27  1  0  0  0  0
 24 28  2  0  0  0  0
 24 29  1  0  0  0  0
  2 30  1  0  0  0  0
 28 30  1  0  0  0  0
 29 31  2  0  0  0  0
 30 32  2  0  0  0  0
 31 32  1  0  0  0  0
 39 43  1  0  0  0  0
 41 44  1  0  0  0  0
 42 44  1  0  0  0  0
 43 44  2  0  0  0  0
 36 45  2  0  0  0  0
 40 45  1  0  0  0  0
 43 45  1  0  0  0  0
 40 46  1  0  0  0  0
 39 47  1  0  0  0  0
 37 48  2  0  0  0  0
 40 48  1  0  0  0  0
 41 48  1  0  0  0  0
 35 49  1  0  0  0  0
 39 49  1  0  0  0  0
 42 49  2  0  0  0  0
 46 50  1  0  0  0  0
 47 51  1  0  0  0  0
 41 52  1  0  0  0  0
 38 53  1  0  0  0  0
 50 53  1  0  0  0  0
 51 54  2  0  0  0  0
 51 55  1  0  0  0  0
 35 56  1  0  0  0  0
 54 57  1  0  0  0  0
 55 58  2  0  0  0  0
 33 59  1  0  0  0  0
 57 59  2  0  0  0  0
 58 59  1  0  0  0  0
 56 60  2  0  0  0  0
 56 61  1  0  0  0  0
 34 62  1  0  0  0  0
 60 62  1  0  0  0  0
 61 63  2  0  0  0  0
 62 64  2  0  0  0  0
 63 64  1  0  0  0  0
 71 75  1  0  0  0  0
 73 76  1  0  0  0  0
 74 76  1  0  0  0  0
 75 76  2  0  0  0  0
 68 77  2  0  0  0  0
 72 77  1  0  0  0  0
 75 77  1  0  0  0  0
 72 78  1  0  0  0  0
 71 79  1  0  0  0  0
 69 80  2  0  0  0  0
 72 80  1  0  0  0  0
 73 80  1  0  0  0  0
 67 81  1  0  0  0  0
 71 81  1  0  0  0  0
 74 81  2  0  0  0  0
 78 82  1  0  0  0  0
 79 83  1  0  0  0  0
 73 84  1  0  0  0  0
 70 85  1  0  0  0  0
 82 85  1  0  0  0  0
 83 86  2  0  0  0  0
 83 87  1  0  0  0  0
 67 88  1  0  0  0  0
 86 89  1  0  0  0  0
 87 90  2  0  0  0  0
 65 91  1  0  0  0  0
 89 91  2  0  0  0  0
 90 91  1  0  0  0  0
 88 92  2  0  0  0  0
 88 93  1  0  0  0  0
 66 94  1  0  0  0  0
 92 94  1  0  0  0  0
 93 95  2  0  0  0  0
 94 96  2  0  0  0  0
 95 96  1  0  0  0  0
103107  1  0  0  0  0
105108  1  0  0  0  0
106108  1  0  0  0  0
107108  2  0  0  0  0
100109  2  0  0  0  0
104109  1  0  0  0  0
107109  1  0  0  0  0
104110  1  0  0  0  0
103111  1  0  0  0  0
101112  2  0  0  0  0
104112  1  0  0  0  0
105112  1  0  0  0  0
 99113  1  0  0  0  0
103113  1  0  0  0  0
106113  2  0  0  0  0
110114  1  0  0  0  0
111115  1  0  0  0  0
105116  1  0  0  0  0
102117  1  0  0  0  0
114117  1  0  0  0  0
115118  2  0  0  0  0
115119  1  0  0  0  0
 99120  1  0  0  0  0
118121  1  0  0  0  0
119122  2  0  0  0  0
 97123  1  0  0  0  0
121123  2  0  0  0  0
122123  1  0  0  0  0
120124  2  0  0  0  0
120125  1  0  0  0  0
 98126  1  0  0  0  0
124126  1  0  0  0  0
125127  2  0  0  0  0
126128  2  0  0  0  0
127128  1  0  0  0  0
M  END
$$$$
