8JSW
  PyMOL3.1          3D                             0

 13 14  0  0  0  0  0  0  0  0999 V2000
  133.9630  136.7650  124.4070 C   0  0  0  0  0  0  0  0  0  0  0  0
  134.2790  136.8670  122.9180 C   0  0  0  0  0  0  0  0  0  0  0  0
  133.0770  136.3930  122.1050 C   0  0  0  0  0  0  0  0  0  0  0  0
  132.2280  135.3440  122.4400 C   0  0  0  0  0  0  0  0  0  0  0  0
  132.6460  136.9220  120.9230 C   0  0  0  0  0  0  0  0  0  0  0  0
  131.5280  136.2040  120.5160 C   0  0  0  0  0  0  0  0  0  0  0  0
  133.1900  138.1100  120.0440 C   0  0  0  0  0  0  0  0  0  0  0  0
  131.2780  135.2350  121.4570 N   0  0  0  0  0  0  0  0  0  0  0  0
  130.7920  136.5740  119.1730 C   0  0  0  0  0  0  0  0  0  0  0  0
  132.4970  138.4750  118.7590 C   0  0  0  0  0  0  0  0  0  0  0  0
  135.1690  137.0140  125.1720 N   0  0  0  0  0  0  0  0  0  0  0  0
  131.3000  137.7090  118.3230 C   0  0  0  0  0  0  0  0  0  0  0  0
  132.9770  139.5330  117.9760 O   0  0  0  0  0  0  0  0  0  0  0  0
  1  2  1  0  0  0  0
  2  3  1  0  0  0  0
  3  4  2  0  0  0  0
  3  5  1  0  0  0  0
  5  6  2  0  0  0  0
  5  7  1  0  0  0  0
  4  8  1  0  0  0  0
  6  8  1  0  0  0  0
  6  9  1  0  0  0  0
  7 10  2  0  0  0  0
  1 11  1  0  0  0  0
  9 12  2  0  0  0  0
 10 12  1  0  0  0  0
 10 13  1  0  0  0  0
M  END
$$$$
