7XUJ
  PyMOL3.1          3D                             0

 44 48  0  0  0  0  0  0  0  0999 V2000
   89.3700  143.4570  112.7060 O   0  0  0  0  0  0  0  0  0  0  0  0
   89.6610  144.8030  114.3580 O   0  0  0  0  0  0  0  0  0  0  0  0
   92.4890  139.1250  116.6340 N   0  0  0  0  0  0  0  0  0  0  0  0
   93.2480  142.4700  113.3230 N   0  0  0  0  0  0  0  0  0  0  0  0
   92.2260  139.7330  117.8220 C   0  0  0  0  0  0  0  0  0  0  0  0
   91.4680  140.8690  117.5650 C   0  0  0  0  0  0  0  0  0  0  0  0
   91.2830  140.9530  116.2310 C   0  0  0  0  0  0  0  0  0  0  0  0
   91.9080  139.8650  115.6470 C   0  0  0  0  0  0  0  0  0  0  0  0
   93.2210  137.9010  116.3700 C   0  0  0  0  0  0  0  0  0  0  0  0
   92.6120  139.3860  119.2870 C   0  0  0  0  0  0  0  0  0  0  0  0
   90.9960  141.8060  118.7150 C   0  0  0  0  0  0  0  0  0  0  0  0
   90.4800  142.0220  115.4820 C   0  0  0  0  0  0  0  0  0  0  0  0
   92.1700  140.2680  120.4140 C   0  0  0  0  0  0  0  0  0  0  0  0
   91.3660  141.4750  120.1280 C   0  0  0  0  0  0  0  0  0  0  0  0
   92.9190  136.6400  117.1690 C   0  0  0  0  0  0  0  0  0  0  0  0
   94.2490  137.8580  115.2520 C   0  0  0  0  0  0  0  0  0  0  0  0
   93.6590  135.3360  116.8740 C   0  0  0  0  0  0  0  0  0  0  0  0
   94.9960  136.5680  114.9410 C   0  0  0  0  0  0  0  0  0  0  0  0
   90.8450  142.7110  114.4140 C   0  0  0  0  0  0  0  0  0  0  0  0
   94.6970  135.3040  115.7470 C   0  0  0  0  0  0  0  0  0  0  0  0
   89.8950  143.7160  113.7990 C   0  0  0  0  0  0  0  0  0  0  0  0
   92.2230  142.5740  113.7860 C   0  0  0  0  0  0  0  0  0  0  0  0
  143.3240   89.2320  112.7070 O   0  0  0  0  0  0  0  0  0  0  0  0
  143.0320   87.8860  114.3590 O   0  0  0  0  0  0  0  0  0  0  0  0
  140.2070   93.5650  116.6340 N   0  0  0  0  0  0  0  0  0  0  0  0
  139.4460   90.2190  113.3240 N   0  0  0  0  0  0  0  0  0  0  0  0
  140.4700   92.9570  117.8230 C   0  0  0  0  0  0  0  0  0  0  0  0
  141.2270   91.8210  117.5660 C   0  0  0  0  0  0  0  0  0  0  0  0
  141.4120   91.7360  116.2320 C   0  0  0  0  0  0  0  0  0  0  0  0
  140.7870   92.8250  115.6480 C   0  0  0  0  0  0  0  0  0  0  0  0
  139.4740   94.7890  116.3700 C   0  0  0  0  0  0  0  0  0  0  0  0
  140.0830   93.3050  119.2870 C   0  0  0  0  0  0  0  0  0  0  0  0
  141.6980   90.8840  118.7160 C   0  0  0  0  0  0  0  0  0  0  0  0
  142.2150   90.6670  115.4820 C   0  0  0  0  0  0  0  0  0  0  0  0
  140.5250   92.4230  120.4140 C   0  0  0  0  0  0  0  0  0  0  0  0
  141.3280   91.2150  120.1280 C   0  0  0  0  0  0  0  0  0  0  0  0
  139.7770   96.0500  117.1690 C   0  0  0  0  0  0  0  0  0  0  0  0
  138.4460   94.8320  115.2520 C   0  0  0  0  0  0  0  0  0  0  0  0
  139.0370   97.3550  116.8740 C   0  0  0  0  0  0  0  0  0  0  0  0
  137.6990   96.1230  114.9410 C   0  0  0  0  0  0  0  0  0  0  0  0
  141.8490   89.9780  114.4150 C   0  0  0  0  0  0  0  0  0  0  0  0
  137.9990   97.3870  115.7470 C   0  0  0  0  0  0  0  0  0  0  0  0
  142.7990   88.9730  113.8000 C   0  0  0  0  0  0  0  0  0  0  0  0
  140.4710   90.1150  113.7860 C   0  0  0  0  0  0  0  0  0  0  0  0
  3  5  1  0  0  0  0
  5  6  2  0  0  0  0
  6  7  1  0  0  0  0
  3  8  1  0  0  0  0
  7  8  2  0  0  0  0
  3  9  1  0  0  0  0
  5 10  1  0  0  0  0
  6 11  1  0  0  0  0
  7 12  1  0  0  0  0
 10 13  2  0  0  0  0
 11 14  2  0  0  0  0
 13 14  1  0  0  0  0
  9 15  2  0  0  0  0
  9 16  1  0  0  0  0
 15 17  1  0  0  0  0
 16 18  2  0  0  0  0
 12 19  2  0  0  0  0
 17 20  2  0  0  0  0
 18 20  1  0  0  0  0
  1 21  2  0  0  0  0
  2 21  1  0  0  0  0
 19 21  1  0  0  0  0
  4 22  3  0  0  0  0
 19 22  1  0  0  0  0
 25 27  1  0  0  0  0
 27 28  2  0  0  0  0
 28 29  1  0  0  0  0
 25 30  1  0  0  0  0
 29 30  2  0  0  0  0
 25 31  1  0  0  0  0
 27 32  1  0  0  0  0
 28 33  1  0  0  0  0
 29 34  1  0  0  0  0
 32 35  2  0  0  0  0
 33 36  2  0  0  0  0
 35 36  1  0  0  0  0
 31 37  2  0  0  0  0
 31 38  1  0  0  0  0
 37 39  1  0  0  0  0
 38 40  2  0  0  0  0
 34 41  2  0  0  0  0
 39 42  2  0  0  0  0
 40 42  1  0  0  0  0
 23 43  2  0  0  0  0
 24 43  1  0  0  0  0
 41 43  1  0  0  0  0
 26 44  3  0  0  0  0
 41 44  1  0  0  0  0
M  END
$$$$
