7XJ0
  PyMOL3.1          3D                             0

132140  0  0  0  0  0  0  0  0999 V2000
  144.7120  171.0190  148.6500 S   0  0  0  0  0  0  0  0  0  0  0  0
  144.6460  165.8360  150.5980 O   0  0  0  0  0  0  0  0  0  0  0  0
  143.5870  167.0300  145.8670 O   0  0  0  0  0  0  0  0  0  0  0  0
  145.0620  168.3320  149.2990 O   0  0  0  0  0  0  0  0  0  0  0  0
  146.8930  176.0240  149.7250 N   0  0  0  0  0  0  0  0  0  0  0  0
  142.7370  171.1600  147.3430 N   0  0  0  0  0  0  0  0  0  0  0  0
  143.4650  168.8320  147.7880 N   0  0  0  0  0  0  0  0  0  0  0  0
  148.1850  173.6320  153.2270 N   0  0  0  0  0  0  0  0  0  0  0  0
  144.1820  164.0720  148.9840 N   0  0  0  0  0  0  0  0  0  0  0  0
  143.6360  164.6800  146.5500 N   0  0  0  0  0  0  0  0  0  0  0  0
  148.6900  174.4870  150.7680 C   0  0  0  0  0  0  0  0  0  0  0  0
  147.3680  174.6600  150.0370 C   0  0  0  0  0  0  0  0  0  0  0  0
  145.2490  173.6470  148.9410 C   0  0  0  0  0  0  0  0  0  0  0  0
  146.5470  173.4420  149.6330 C   0  0  0  0  0  0  0  0  0  0  0  0
  149.4030  175.8350  150.8260 C   0  0  0  0  0  0  0  0  0  0  0  0
  149.5510  173.4830  150.0010 C   0  0  0  0  0  0  0  0  0  0  0  0
  144.4180  172.4740  148.4660 C   0  0  0  0  0  0  0  0  0  0  0  0
  144.7930  175.0160  148.6050 C   0  0  0  0  0  0  0  0  0  0  0  0
  143.2320  172.5820  147.6690 C   0  0  0  0  0  0  0  0  0  0  0  0
  148.4050  173.9950  152.1820 C   0  0  0  0  0  0  0  0  0  0  0  0
  145.6140  176.2230  149.0170 C   0  0  0  0  0  0  0  0  0  0  0  0
  143.6050  170.2470  147.9360 C   0  0  0  0  0  0  0  0  0  0  0  0
  142.5280  173.8340  147.2100 C   0  0  0  0  0  0  0  0  0  0  0  0
  144.2840  167.9320  148.5290 C   0  0  0  0  0  0  0  0  0  0  0  0
  144.1190  166.4640  148.2470 C   0  0  0  0  0  0  0  0  0  0  0  0
  144.3320  165.4600  149.3030 C   0  0  0  0  0  0  0  0  0  0  0  0
  143.7760  166.0700  146.8600 C   0  0  0  0  0  0  0  0  0  0  0  0
  143.8330  163.6620  147.6030 C   0  0  0  0  0  0  0  0  0  0  0  0
  144.4150  164.8460  151.5410 C   0  0  0  0  0  0  0  0  0  0  0  0
  143.3580  166.5490  144.5880 C   0  0  0  0  0  0  0  0  0  0  0  0
  143.3620  174.5260  146.4050 F   0  0  0  0  0  0  0  0  0  0  0  0
  142.1890  174.5760  148.2880 F   0  0  0  0  0  0  0  0  0  0  0  0
  141.4140  173.5130  146.5140 F   0  0  0  0  0  0  0  0  0  0  0  0
  161.8050  144.6990  148.6420 S   0  0  0  0  0  0  0  0  0  0  0  0
  166.9790  144.6510  150.6020 O   0  0  0  0  0  0  0  0  0  0  0  0
  165.7910  143.5930  145.8730 O   0  0  0  0  0  0  0  0  0  0  0  0
  164.4870  145.0460  149.3090 O   0  0  0  0  0  0  0  0  0  0  0  0
  156.7850  146.8610  149.7120 N   0  0  0  0  0  0  0  0  0  0  0  0
  161.6730  142.7180  147.3370 N   0  0  0  0  0  0  0  0  0  0  0  0
  163.9960  143.4590  147.7830 N   0  0  0  0  0  0  0  0  0  0  0  0
  159.1430  148.2000  153.2040 N   0  0  0  0  0  0  0  0  0  0  0  0
  168.7490  144.2110  148.9860 N   0  0  0  0  0  0  0  0  0  0  0  0
  168.1450  143.6660  146.5510 N   0  0  0  0  0  0  0  0  0  0  0  0
  158.3140  148.6800  150.7310 C   0  0  0  0  0  0  0  0  0  0  0  0
  158.1480  147.3490  150.0120 C   0  0  0  0  0  0  0  0  0  0  0  0
  159.1730  145.2280  148.9300 C   0  0  0  0  0  0  0  0  0  0  0  0
  159.3700  146.5340  149.6090 C   0  0  0  0  0  0  0  0  0  0  0  0
  156.9650  149.3930  150.7710 C   0  0  0  0  0  0  0  0  0  0  0  0
  159.3240  149.5350  149.9670 C   0  0  0  0  0  0  0  0  0  0  0  0
  160.3510  144.4000  148.4570 C   0  0  0  0  0  0  0  0  0  0  0  0
  157.8060  144.7580  148.6060 C   0  0  0  0  0  0  0  0  0  0  0  0
  160.2490  143.2130  147.6620 C   0  0  0  0  0  0  0  0  0  0  0  0
  158.7910  148.4090  152.1530 C   0  0  0  0  0  0  0  0  0  0  0  0
  156.5940  145.5740  149.0160 C   0  0  0  0  0  0  0  0  0  0  0  0
  162.5810  143.5920  147.9300 C   0  0  0  0  0  0  0  0  0  0  0  0
  158.9970  142.5070  147.2040 C   0  0  0  0  0  0  0  0  0  0  0  0
  164.8910  144.2750  148.5330 C   0  0  0  0  0  0  0  0  0  0  0  0
  166.3590  144.1230  148.2510 C   0  0  0  0  0  0  0  0  0  0  0  0
  167.3600  144.3450  149.3070 C   0  0  0  0  0  0  0  0  0  0  0  0
  166.7540  143.7890  146.8630 C   0  0  0  0  0  0  0  0  0  0  0  0
  169.1630  143.8740  147.6030 C   0  0  0  0  0  0  0  0  0  0  0  0
  167.9690  144.4240  151.5470 C   0  0  0  0  0  0  0  0  0  0  0  0
  166.2640  143.3600  144.5920 C   0  0  0  0  0  0  0  0  0  0  0  0
  158.3010  143.3430  146.4060 F   0  0  0  0  0  0  0  0  0  0  0  0
  158.2600  142.1580  148.2820 F   0  0  0  0  0  0  0  0  0  0  0  0
  159.3170  141.3990  146.4990 F   0  0  0  0  0  0  0  0  0  0  0  0
  170.9820  188.1040  148.7350 S   0  0  0  0  0  0  0  0  0  0  0  0
  165.8890  188.1980  150.4340 O   0  0  0  0  0  0  0  0  0  0  0  0
  167.1180  189.2720  145.7420 O   0  0  0  0  0  0  0  0  0  0  0  0
  168.2600  187.8650  149.2290 O   0  0  0  0  0  0  0  0  0  0  0  0
  175.8790  185.6910  149.3640 N   0  0  0  0  0  0  0  0  0  0  0  0
  171.0890  189.9040  147.4250 N   0  0  0  0  0  0  0  0  0  0  0  0
  168.8690  189.3250  147.7880 N   0  0  0  0  0  0  0  0  0  0  0  0
  173.6380  184.8580  153.1080 N   0  0  0  0  0  0  0  0  0  0  0  0
  164.2520  188.5740  148.8210 N   0  0  0  0  0  0  0  0  0  0  0  0
  164.9130  189.1220  146.4740 N   0  0  0  0  0  0  0  0  0  0  0  0
  174.5130  184.1080  150.7510 C   0  0  0  0  0  0  0  0  0  0  0  0
  174.5860  185.3760  149.9550 C   0  0  0  0  0  0  0  0  0  0  0  0
  173.4900  187.4720  149.0260 C   0  0  0  0  0  0  0  0  0  0  0  0
  173.3390  186.2280  149.7860 C   0  0  0  0  0  0  0  0  0  0  0  0
  175.9070  183.5070  150.8430 C   0  0  0  0  0  0  0  0  0  0  0  0
  173.5740  183.1940  149.9550 C   0  0  0  0  0  0  0  0  0  0  0  0
  172.3860  188.3670  148.5980 C   0  0  0  0  0  0  0  0  0  0  0  0
  174.7770  187.7150  148.4030 C   0  0  0  0  0  0  0  0  0  0  0  0
  172.4810  189.4900  147.7360 C   0  0  0  0  0  0  0  0  0  0  0  0
  174.0080  184.5150  152.1200 C   0  0  0  0  0  0  0  0  0  0  0  0
  175.9950  186.8870  148.5900 C   0  0  0  0  0  0  0  0  0  0  0  0
  170.2210  189.1300  148.0130 C   0  0  0  0  0  0  0  0  0  0  0  0
  173.5990  190.3010  147.1810 C   0  0  0  0  0  0  0  0  0  0  0  0
  167.9390  188.5770  148.4700 C   0  0  0  0  0  0  0  0  0  0  0  0
  166.5480  188.7250  148.1260 C   0  0  0  0  0  0  0  0  0  0  0  0
  165.5710  188.4660  149.1520 C   0  0  0  0  0  0  0  0  0  0  0  0
  166.2340  189.0630  146.7470 C   0  0  0  0  0  0  0  0  0  0  0  0
  163.9210  188.9080  147.4740 C   0  0  0  0  0  0  0  0  0  0  0  0
  164.9170  188.3570  151.3590 C   0  0  0  0  0  0  0  0  0  0  0  0
  166.6720  189.4300  144.5000 C   0  0  0  0  0  0  0  0  0  0  0  0
  173.3870  191.5420  146.9070 F   0  0  0  0  0  0  0  0  0  0  0  0
  173.7300  190.0510  145.9350 F   0  0  0  0  0  0  0  0  0  0  0  0
  174.6850  190.3020  147.8900 F   0  0  0  0  0  0  0  0  0  0  0  0
  188.0190  161.7690  148.2200 S   0  0  0  0  0  0  0  0  0  0  0  0
  188.1330  166.7390  150.6400 O   0  0  0  0  0  0  0  0  0  0  0  0
  189.2090  166.1200  145.7990 O   0  0  0  0  0  0  0  0  0  0  0  0
  187.9610  164.4130  149.2950 O   0  0  0  0  0  0  0  0  0  0  0  0
  185.7810  156.8700  149.6310 N   0  0  0  0  0  0  0  0  0  0  0  0
  190.2280  161.6250  147.3040 N   0  0  0  0  0  0  0  0  0  0  0  0
  189.2820  163.9970  147.4760 N   0  0  0  0  0  0  0  0  0  0  0  0
  184.9940  159.4310  153.2560 N   0  0  0  0  0  0  0  0  0  0  0  0
  188.5060  168.7230  149.2210 N   0  0  0  0  0  0  0  0  0  0  0  0
  189.0620  168.4050  146.7230 N   0  0  0  0  0  0  0  0  0  0  0  0
  184.2110  158.5450  150.8740 C   0  0  0  0  0  0  0  0  0  0  0  0
  185.4370  158.2660  150.0080 C   0  0  0  0  0  0  0  0  0  0  0  0
  187.5100  159.1500  148.6850 C   0  0  0  0  0  0  0  0  0  0  0  0
  186.3120  159.4230  149.5300 C   0  0  0  0  0  0  0  0  0  0  0  0
  183.4070  157.2590  151.0480 C   0  0  0  0  0  0  0  0  0  0  0  0
  183.3420  159.6020  150.1970 C   0  0  0  0  0  0  0  0  0  0  0  0
  188.3870  160.3040  148.2050 C   0  0  0  0  0  0  0  0  0  0  0  0
  187.8520  157.7470  148.3090 C   0  0  0  0  0  0  0  0  0  0  0  0
  189.7150  160.1850  147.6580 C   0  0  0  0  0  0  0  0  0  0  0  0
  184.6600  159.0540  152.2410 C   0  0  0  0  0  0  0  0  0  0  0  0
  186.9740  156.5940  148.7890 C   0  0  0  0  0  0  0  0  0  0  0  0
  189.2090  162.5560  147.6430 C   0  0  0  0  0  0  0  0  0  0  0  0
  190.4870  158.8840  147.4570 C   0  0  0  0  0  0  0  0  0  0  0  0
  188.5880  164.8720  148.4010 C   0  0  0  0  0  0  0  0  0  0  0  0
  188.6680  166.3870  148.2240 C   0  0  0  0  0  0  0  0  0  0  0  0
  188.4300  167.2830  149.3870 C   0  0  0  0  0  0  0  0  0  0  0  0
  188.9850  166.9640  146.8900 C   0  0  0  0  0  0  0  0  0  0  0  0
  188.8240  169.3070  147.8860 C   0  0  0  0  0  0  0  0  0  0  0  0
  188.2430  167.6490  151.6950 C   0  0  0  0  0  0  0  0  0  0  0  0
  189.4630  166.7980  144.6010 C   0  0  0  0  0  0  0  0  0  0  0  0
  189.8470  158.1110  146.5320 F   0  0  0  0  0  0  0  0  0  0  0  0
  190.5570  158.2100  148.6420 F   0  0  0  0  0  0  0  0  0  0  0  0
  191.7490  159.1670  147.0200 F   0  0  0  0  0  0  0  0  0  0  0  0
  5 12  1  0  0  0  0
 11 12  1  0  0  0  0
 12 14  2  0  0  0  0
 13 14  1  0  0  0  0
 11 15  1  0  0  0  0
 11 16  1  0  0  0  0
  1 17  1  0  0  0  0
 13 17  1  0  0  0  0
 13 18  2  0  0  0  0
  6 19  1  0  0  0  0
 17 19  2  0  0  0  0
  8 20  3  0  0  0  0
 11 20  1  0  0  0  0
  5 21  2  0  0  0  0
 18 21  1  0  0  0  0
  1 22  1  0  0  0  0
  6 22  2  0  0  0  0
  7 22  1  0  0  0  0
 19 23  1  0  0  0  0
  4 24  2  0  0  0  0
  7 24  1  0  0  0  0
 24 25  1  0  0  0  0
  2 26  1  0  0  0  0
  9 26  2  0  0  0  0
 25 26  1  0  0  0  0
  3 27  1  0  0  0  0
 10 27  1  0  0  0  0
 25 27  2  0  0  0  0
  9 28  1  0  0  0  0
 10 28  2  0  0  0  0
  2 29  1  0  0  0  0
  3 30  1  0  0  0  0
 23 31  1  0  0  0  0
 23 32  1  0  0  0  0
 23 33  1  0  0  0  0
 38 45  1  0  0  0  0
 44 45  1  0  0  0  0
 45 47  2  0  0  0  0
 46 47  1  0  0  0  0
 44 48  1  0  0  0  0
 44 49  1  0  0  0  0
 34 50  1  0  0  0  0
 46 50  1  0  0  0  0
 46 51  2  0  0  0  0
 39 52  1  0  0  0  0
 50 52  2  0  0  0  0
 41 53  3  0  0  0  0
 44 53  1  0  0  0  0
 38 54  2  0  0  0  0
 51 54  1  0  0  0  0
 34 55  1  0  0  0  0
 39 55  2  0  0  0  0
 40 55  1  0  0  0  0
 52 56  1  0  0  0  0
 37 57  2  0  0  0  0
 40 57  1  0  0  0  0
 57 58  1  0  0  0  0
 35 59  1  0  0  0  0
 42 59  2  0  0  0  0
 58 59  1  0  0  0  0
 36 60  1  0  0  0  0
 43 60  1  0  0  0  0
 58 60  2  0  0  0  0
 42 61  1  0  0  0  0
 43 61  2  0  0  0  0
 35 62  1  0  0  0  0
 36 63  1  0  0  0  0
 56 64  1  0  0  0  0
 56 65  1  0  0  0  0
 56 66  1  0  0  0  0
 71 78  1  0  0  0  0
 77 78  1  0  0  0  0
 78 80  2  0  0  0  0
 79 80  1  0  0  0  0
 77 81  1  0  0  0  0
 77 82  1  0  0  0  0
 67 83  1  0  0  0  0
 79 83  1  0  0  0  0
 79 84  2  0  0  0  0
 72 85  1  0  0  0  0
 83 85  2  0  0  0  0
 74 86  3  0  0  0  0
 77 86  1  0  0  0  0
 71 87  2  0  0  0  0
 84 87  1  0  0  0  0
 67 88  1  0  0  0  0
 72 88  2  0  0  0  0
 73 88  1  0  0  0  0
 85 89  1  0  0  0  0
 70 90  2  0  0  0  0
 73 90  1  0  0  0  0
 90 91  1  0  0  0  0
 68 92  1  0  0  0  0
 75 92  2  0  0  0  0
 91 92  1  0  0  0  0
 69 93  1  0  0  0  0
 76 93  1  0  0  0  0
 91 93  2  0  0  0  0
 75 94  1  0  0  0  0
 76 94  2  0  0  0  0
 68 95  1  0  0  0  0
 69 96  1  0  0  0  0
 89 97  1  0  0  0  0
 89 98  1  0  0  0  0
 89 99  1  0  0  0  0
104111  1  0  0  0  0
110111  1  0  0  0  0
111113  2  0  0  0  0
112113  1  0  0  0  0
110114  1  0  0  0  0
110115  1  0  0  0  0
100116  1  0  0  0  0
112116  1  0  0  0  0
112117  2  0  0  0  0
105118  1  0  0  0  0
116118  2  0  0  0  0
107119  3  0  0  0  0
110119  1  0  0  0  0
104120  2  0  0  0  0
117120  1  0  0  0  0
100121  1  0  0  0  0
105121  2  0  0  0  0
106121  1  0  0  0  0
118122  1  0  0  0  0
103123  2  0  0  0  0
106123  1  0  0  0  0
123124  1  0  0  0  0
101125  1  0  0  0  0
108125  2  0  0  0  0
124125  1  0  0  0  0
102126  1  0  0  0  0
109126  1  0  0  0  0
124126  2  0  0  0  0
108127  1  0  0  0  0
109127  2  0  0  0  0
101128  1  0  0  0  0
102129  1  0  0  0  0
122130  1  0  0  0  0
122131  1  0  0  0  0
122132  1  0  0  0  0
M  END
$$$$
