8W2L
  PyMOL3.1          3D                             0

 24 27  0  0  0  0  0  0  0  0999 V2000
  143.3290  134.8240  181.5410 Cl  0  0  0  0  0  0  0  0  0  0  0  0
  152.1730  132.8100  184.2270 N   0  0  0  0  0  0  0  0  0  0  0  0
  151.1870  132.5120  183.1850 C   0  0  0  0  0  0  0  0  0  0  0  0
  150.4710  133.7750  185.6870 C   0  0  0  0  0  0  0  0  0  0  0  0
  148.4170  134.7930  184.7480 C   0  0  0  0  0  0  0  0  0  0  0  0
  149.4010  133.6250  184.6110 C   0  0  0  0  0  0  0  0  0  0  0  0
  148.6260  132.3670  184.8670 N   0  3  0  0  0  0  0  0  0  0  0  0
  151.5890  132.7540  185.5680 C   0  0  0  0  0  0  0  0  0  0  0  0
  147.1450  134.7510  183.9360 C   0  0  0  0  0  0  0  0  0  0  0  0
  147.1600  135.0490  182.5850 C   0  0  0  0  0  0  0  0  0  0  0  0
  145.9960  135.0560  181.8410 C   0  0  0  0  0  0  0  0  0  0  0  0
  144.8050  134.7630  182.4590 C   0  0  0  0  0  0  0  0  0  0  0  0
  144.7540  134.4610  183.7980 C   0  0  0  0  0  0  0  0  0  0  0  0
  145.9270  134.4570  184.5300 C   0  0  0  0  0  0  0  0  0  0  0  0
  153.5020  132.4640  184.0800 C   0  0  0  0  0  0  0  0  0  0  0  0
  150.0590  133.5280  183.2380 C   0  0  0  0  0  0  0  0  0  0  0  0
  154.1010  131.9430  185.1600 N   0  0  0  0  0  0  0  0  0  0  0  0
  155.4010  131.6540  185.0380 C   0  0  0  0  0  0  0  0  0  0  0  0
  156.2010  131.8090  183.9820 N   0  0  0  0  0  0  0  0  0  0  0  0
  155.5730  132.3290  182.9210 C   0  0  0  0  0  0  0  0  0  0  0  0
  156.1330  132.5890  181.7030 N   0  0  0  0  0  0  0  0  0  0  0  0
  155.1600  133.1050  180.8850 C   0  0  0  0  0  0  0  0  0  0  0  0
  153.9800  133.1850  181.5490 C   0  0  0  0  0  0  0  0  0  0  0  0
  154.2150  132.6910  182.8680 C   0  0  0  0  0  0  0  0  0  0  0  0
  2  3  1  0  0  0  0
  4  6  1  0  0  0  0
  5  6  1  0  0  0  0
  6  7  1  0  0  0  0
  2  8  1  0  0  0  0
  4  8  1  0  0  0  0
  5  9  1  0  0  0  0
  9 10  1  0  0  0  0
 10 11  2  0  0  0  0
  1 12  1  0  0  0  0
 11 12  1  0  0  0  0
 12 13  2  0  0  0  0
  9 14  2  0  0  0  0
 13 14  1  0  0  0  0
  2 15  1  0  0  0  0
  3 16  1  0  0  0  0
  6 16  1  0  0  0  0
 15 17  1  0  0  0  0
 17 18  2  0  0  0  0
 18 19  1  0  0  0  0
 19 20  2  0  0  0  0
 20 21  1  0  0  0  0
 21 22  1  0  0  0  0
 22 23  2  0  0  0  0
 15 24  2  0  0  0  0
 20 24  1  0  0  0  0
 23 24  1  0  0  0  0
M  END
$$$$
