8W2L
  PyMOL3.1          3D                             0

 96108  0  0  0  0  0  0  0  0999 V2000
  176.6770  185.1810  181.5270 Cl  0  0  0  0  0  0  0  0  0  0  0  0
  167.8390  187.2010  184.2210 N   0  0  0  0  0  0  0  0  0  0  0  0
  168.8230  187.4890  183.1740 C   0  0  0  0  0  0  0  0  0  0  0  0
  169.5420  186.2360  185.6800 C   0  0  0  0  0  0  0  0  0  0  0  0
  171.5900  185.2050  184.7370 C   0  0  0  0  0  0  0  0  0  0  0  0
  170.6090  186.3760  184.5990 C   0  0  0  0  0  0  0  0  0  0  0  0
  171.3890  187.6330  184.8460 N   0  3  0  0  0  0  0  0  0  0  0  0
  168.4280  187.2610  185.5600 C   0  0  0  0  0  0  0  0  0  0  0  0
  172.8620  185.2450  183.9250 C   0  0  0  0  0  0  0  0  0  0  0  0
  172.8480  184.9440  182.5750 C   0  0  0  0  0  0  0  0  0  0  0  0
  174.0110  184.9380  181.8310 C   0  0  0  0  0  0  0  0  0  0  0  0
  175.2010  185.2350  182.4470 C   0  0  0  0  0  0  0  0  0  0  0  0
  175.2520  185.5400  183.7850 C   0  0  0  0  0  0  0  0  0  0  0  0
  174.0800  185.5430  184.5180 C   0  0  0  0  0  0  0  0  0  0  0  0
  166.5090  187.5440  184.0770 C   0  0  0  0  0  0  0  0  0  0  0  0
  169.9470  186.4680  183.2290 C   0  0  0  0  0  0  0  0  0  0  0  0
  165.9120  188.0620  185.1600 N   0  0  0  0  0  0  0  0  0  0  0  0
  164.6100  188.3460  185.0420 C   0  0  0  0  0  0  0  0  0  0  0  0
  163.8070  188.1880  183.9880 N   0  0  0  0  0  0  0  0  0  0  0  0
  164.4340  187.6710  182.9250 C   0  0  0  0  0  0  0  0  0  0  0  0
  163.8720  187.4100  181.7090 N   0  0  0  0  0  0  0  0  0  0  0  0
  164.8440  186.8990  180.8870 C   0  0  0  0  0  0  0  0  0  0  0  0
  166.0270  186.8240  181.5460 C   0  0  0  0  0  0  0  0  0  0  0  0
  165.7930  187.3150  182.8670 C   0  0  0  0  0  0  0  0  0  0  0  0
  134.7450  176.7190  181.5070 Cl  0  0  0  0  0  0  0  0  0  0  0  0
  132.7690  167.8530  184.1880 N   0  0  0  0  0  0  0  0  0  0  0  0
  132.5130  168.8250  183.1220 C   0  0  0  0  0  0  0  0  0  0  0  0
  133.7090  169.5700  185.6460 C   0  0  0  0  0  0  0  0  0  0  0  0
  134.7820  171.6020  184.6740 C   0  0  0  0  0  0  0  0  0  0  0  0
  133.6080  170.6230  184.5470 C   0  0  0  0  0  0  0  0  0  0  0  0
  132.3530  171.4180  184.7500 N   0  3  0  0  0  0  0  0  0  0  0  0
  132.6770  168.4640  185.5160 C   0  0  0  0  0  0  0  0  0  0  0  0
  134.7470  172.8840  183.8770 C   0  0  0  0  0  0  0  0  0  0  0  0
  134.9640  172.8750  182.5110 C   0  0  0  0  0  0  0  0  0  0  0  0
  134.9590  174.0470  181.7780 C   0  0  0  0  0  0  0  0  0  0  0  0
  134.7350  175.2380  182.4220 C   0  0  0  0  0  0  0  0  0  0  0  0
  134.5160  175.2840  183.7760 C   0  0  0  0  0  0  0  0  0  0  0  0
  134.5230  174.1040  184.4970 C   0  0  0  0  0  0  0  0  0  0  0  0
  132.4260  166.5200  184.0620 C   0  0  0  0  0  0  0  0  0  0  0  0
  133.5430  169.9400  183.1850 C   0  0  0  0  0  0  0  0  0  0  0  0
  131.9270  165.9360  185.1610 N   0  0  0  0  0  0  0  0  0  0  0  0
  131.6460  164.6320  185.0670 C   0  0  0  0  0  0  0  0  0  0  0  0
  131.7890  163.8140  184.0230 N   0  0  0  0  0  0  0  0  0  0  0  0
  132.2860  164.4280  182.9420 C   0  0  0  0  0  0  0  0  0  0  0  0
  132.5240  163.8500  181.7290 N   0  0  0  0  0  0  0  0  0  0  0  0
  133.0120  164.8130  180.8830 C   0  0  0  0  0  0  0  0  0  0  0  0
  133.0970  166.0050  181.5250 C   0  0  0  0  0  0  0  0  0  0  0  0
  132.6360  165.7870  182.8590 C   0  0  0  0  0  0  0  0  0  0  0  0
  143.3290  134.8240  181.5410 Cl  0  0  0  0  0  0  0  0  0  0  0  0
  152.1730  132.8100  184.2270 N   0  0  0  0  0  0  0  0  0  0  0  0
  151.1870  132.5120  183.1850 C   0  0  0  0  0  0  0  0  0  0  0  0
  150.4710  133.7750  185.6870 C   0  0  0  0  0  0  0  0  0  0  0  0
  148.4170  134.7930  184.7480 C   0  0  0  0  0  0  0  0  0  0  0  0
  149.4010  133.6250  184.6110 C   0  0  0  0  0  0  0  0  0  0  0  0
  148.6260  132.3670  184.8670 N   0  3  0  0  0  0  0  0  0  0  0  0
  151.5890  132.7540  185.5680 C   0  0  0  0  0  0  0  0  0  0  0  0
  147.1450  134.7510  183.9360 C   0  0  0  0  0  0  0  0  0  0  0  0
  147.1600  135.0490  182.5850 C   0  0  0  0  0  0  0  0  0  0  0  0
  145.9960  135.0560  181.8410 C   0  0  0  0  0  0  0  0  0  0  0  0
  144.8050  134.7630  182.4590 C   0  0  0  0  0  0  0  0  0  0  0  0
  144.7540  134.4610  183.7980 C   0  0  0  0  0  0  0  0  0  0  0  0
  145.9270  134.4570  184.5300 C   0  0  0  0  0  0  0  0  0  0  0  0
  153.5020  132.4640  184.0800 C   0  0  0  0  0  0  0  0  0  0  0  0
  150.0590  133.5280  183.2380 C   0  0  0  0  0  0  0  0  0  0  0  0
  154.1010  131.9430  185.1600 N   0  0  0  0  0  0  0  0  0  0  0  0
  155.4010  131.6540  185.0380 C   0  0  0  0  0  0  0  0  0  0  0  0
  156.2010  131.8090  183.9820 N   0  0  0  0  0  0  0  0  0  0  0  0
  155.5730  132.3290  182.9210 C   0  0  0  0  0  0  0  0  0  0  0  0
  156.1330  132.5890  181.7030 N   0  0  0  0  0  0  0  0  0  0  0  0
  155.1600  133.1050  180.8850 C   0  0  0  0  0  0  0  0  0  0  0  0
  153.9800  133.1850  181.5490 C   0  0  0  0  0  0  0  0  0  0  0  0
  154.2150  132.6910  182.8680 C   0  0  0  0  0  0  0  0  0  0  0  0
  185.1570  143.3110  181.5200 Cl  0  0  0  0  0  0  0  0  0  0  0  0
  187.1680  152.1690  184.2270 N   0  0  0  0  0  0  0  0  0  0  0  0
  187.4860  151.1840  183.1900 C   0  0  0  0  0  0  0  0  0  0  0  0
  186.1910  150.4610  185.6730 C   0  0  0  0  0  0  0  0  0  0  0  0
  185.1990  148.4020  184.7210 C   0  0  0  0  0  0  0  0  0  0  0  0
  186.3640  149.3920  184.6000 C   0  0  0  0  0  0  0  0  0  0  0  0
  187.6240  148.6260  184.8740 N   0  3  0  0  0  0  0  0  0  0  0  0
  187.2050  151.5870  185.5700 C   0  0  0  0  0  0  0  0  0  0  0  0
  185.2500  147.1320  183.9070 C   0  0  0  0  0  0  0  0  0  0  0  0
  184.9510  147.1460  182.5570 C   0  0  0  0  0  0  0  0  0  0  0  0
  184.9390  145.9810  181.8150 C   0  0  0  0  0  0  0  0  0  0  0  0
  185.2290  144.7900  182.4350 C   0  0  0  0  0  0  0  0  0  0  0  0
  185.5320  144.7400  183.7730 C   0  0  0  0  0  0  0  0  0  0  0  0
  185.5410  145.9140  184.5030 C   0  0  0  0  0  0  0  0  0  0  0  0
  187.5140  153.4970  184.0780 C   0  0  0  0  0  0  0  0  0  0  0  0
  186.4760  150.0510  183.2290 C   0  0  0  0  0  0  0  0  0  0  0  0
  188.0380  154.0990  185.1560 N   0  0  0  0  0  0  0  0  0  0  0  0
  188.3290  155.3980  185.0290 C   0  0  0  0  0  0  0  0  0  0  0  0
  188.1730  156.1940  183.9700 N   0  0  0  0  0  0  0  0  0  0  0  0
  187.6500  155.5640  182.9120 C   0  0  0  0  0  0  0  0  0  0  0  0
  187.3880  156.1200  181.6940 N   0  0  0  0  0  0  0  0  0  0  0  0
  186.8690  155.1450  180.8800 C   0  0  0  0  0  0  0  0  0  0  0  0
  186.7890  153.9670  181.5480 C   0  0  0  0  0  0  0  0  0  0  0  0
  187.2870  154.2070  182.8650 C   0  0  0  0  0  0  0  0  0  0  0  0
  2  3  1  0  0  0  0
  4  6  1  0  0  0  0
  5  6  1  0  0  0  0
  6  7  1  0  0  0  0
  2  8  1  0  0  0  0
  4  8  1  0  0  0  0
  5  9  1  0  0  0  0
  9 10  1  0  0  0  0
 10 11  2  0  0  0  0
  1 12  1  0  0  0  0
 11 12  1  0  0  0  0
 12 13  2  0  0  0  0
  9 14  2  0  0  0  0
 13 14  1  0  0  0  0
  2 15  1  0  0  0  0
  3 16  1  0  0  0  0
  6 16  1  0  0  0  0
 15 17  1  0  0  0  0
 17 18  2  0  0  0  0
 18 19  1  0  0  0  0
 19 20  2  0  0  0  0
 20 21  1  0  0  0  0
 21 22  1  0  0  0  0
 22 23  2  0  0  0  0
 15 24  2  0  0  0  0
 20 24  1  0  0  0  0
 23 24  1  0  0  0  0
 26 27  1  0  0  0  0
 28 30  1  0  0  0  0
 29 30  1  0  0  0  0
 30 31  1  0  0  0  0
 26 32  1  0  0  0  0
 28 32  1  0  0  0  0
 29 33  1  0  0  0  0
 33 34  1  0  0  0  0
 34 35  2  0  0  0  0
 25 36  1  0  0  0  0
 35 36  1  0  0  0  0
 36 37  2  0  0  0  0
 33 38  2  0  0  0  0
 37 38  1  0  0  0  0
 26 39  1  0  0  0  0
 27 40  1  0  0  0  0
 30 40  1  0  0  0  0
 39 41  1  0  0  0  0
 41 42  2  0  0  0  0
 42 43  1  0  0  0  0
 43 44  2  0  0  0  0
 44 45  1  0  0  0  0
 45 46  1  0  0  0  0
 46 47  2  0  0  0  0
 39 48  2  0  0  0  0
 44 48  1  0  0  0  0
 47 48  1  0  0  0  0
 50 51  1  0  0  0  0
 52 54  1  0  0  0  0
 53 54  1  0  0  0  0
 54 55  1  0  0  0  0
 50 56  1  0  0  0  0
 52 56  1  0  0  0  0
 53 57  1  0  0  0  0
 57 58  1  0  0  0  0
 58 59  2  0  0  0  0
 49 60  1  0  0  0  0
 59 60  1  0  0  0  0
 60 61  2  0  0  0  0
 57 62  2  0  0  0  0
 61 62  1  0  0  0  0
 50 63  1  0  0  0  0
 51 64  1  0  0  0  0
 54 64  1  0  0  0  0
 63 65  1  0  0  0  0
 65 66  2  0  0  0  0
 66 67  1  0  0  0  0
 67 68  2  0  0  0  0
 68 69  1  0  0  0  0
 69 70  1  0  0  0  0
 70 71  2  0  0  0  0
 63 72  2  0  0  0  0
 68 72  1  0  0  0  0
 71 72  1  0  0  0  0
 74 75  1  0  0  0  0
 76 78  1  0  0  0  0
 77 78  1  0  0  0  0
 78 79  1  0  0  0  0
 74 80  1  0  0  0  0
 76 80  1  0  0  0  0
 77 81  1  0  0  0  0
 81 82  1  0  0  0  0
 82 83  2  0  0  0  0
 73 84  1  0  0  0  0
 83 84  1  0  0  0  0
 84 85  2  0  0  0  0
 81 86  2  0  0  0  0
 85 86  1  0  0  0  0
 74 87  1  0  0  0  0
 75 88  1  0  0  0  0
 78 88  1  0  0  0  0
 87 89  1  0  0  0  0
 89 90  2  0  0  0  0
 90 91  1  0  0  0  0
 91 92  2  0  0  0  0
 92 93  1  0  0  0  0
 93 94  1  0  0  0  0
 94 95  2  0  0  0  0
 87 96  2  0  0  0  0
 92 96  1  0  0  0  0
 95 96  1  0  0  0  0
M  END
$$$$
