8BHA
  PyMOL3.1          3D                             0

255270  0  0  0  0  0  0  0  0999 V2000
  153.5070  189.6530  194.4450 N   0  0  0  0  0  0  0  0  0  0  0  0
  150.6760  188.8720  192.3170 C   0  0  0  0  0  0  0  0  0  0  0  0
  152.2560  189.0820  194.1200 O   0  0  0  0  0  0  0  0  0  0  0  0
  151.9650  189.3870  192.8390 C   0  0  0  0  0  0  0  0  0  0  0  0
  152.8200  193.5530  189.2050 N   0  0  0  0  0  0  0  0  0  0  0  0
  153.0260  192.1120  191.0060 O   0  0  0  0  0  0  0  0  0  0  0  0
  152.9620  190.1290  192.3020 C   0  0  0  0  0  0  0  0  0  0  0  0
  156.1700  194.5830  186.0500 N   0  0  0  0  0  0  0  0  0  0  0  0
  155.3130  196.3710  187.1000 O   0  0  0  0  0  0  0  0  0  0  0  0
  153.9040  190.2630  193.3620 C   0  0  0  0  0  0  0  0  0  0  0  0
  160.2340  193.3780  185.1880 O   0  0  0  0  0  0  0  0  0  0  0  0
  155.2020  190.9650  193.3820 C   0  0  0  0  0  0  0  0  0  0  0  0
  158.4610  193.1580  183.4920 O   0  0  0  0  0  0  0  0  0  0  0  0
  156.3800  190.2690  193.6280 C   0  0  0  0  0  0  0  0  0  0  0  0
  157.6050  190.9150  193.6150 C   0  0  0  0  0  0  0  0  0  0  0  0
  157.6230  192.2570  193.3540 C   0  0  0  0  0  0  0  0  0  0  0  0
  156.4920  192.9880  193.1130 C   0  0  0  0  0  0  0  0  0  0  0  0
  155.2740  192.3310  193.1300 C   0  0  0  0  0  0  0  0  0  0  0  0
  153.0820  190.6920  190.9190 C   0  0  0  0  0  0  0  0  0  0  0  0
  153.5890  192.8190  189.9930 C   0  0  0  0  0  0  0  0  0  0  0  0
  153.4360  194.2780  188.2580 C   0  0  0  0  0  0  0  0  0  0  0  0
  154.8110  194.2970  188.0680 C   0  0  0  0  0  0  0  0  0  0  0  0
  155.5780  193.5020  188.9080 C   0  0  0  0  0  0  0  0  0  0  0  0
  154.9760  192.7430  189.8920 C   0  0  0  0  0  0  0  0  0  0  0  0
  155.4530  195.1640  187.0340 C   0  0  0  0  0  0  0  0  0  0  0  0
  156.3860  193.1470  185.8420 C   0  0  0  0  0  0  0  0  0  0  0  0
  157.8380  192.7100  185.9900 C   0  0  0  0  0  0  0  0  0  0  0  0
  158.3940  195.2310  185.0820 C   0  0  0  0  0  0  0  0  0  0  0  0
  156.8780  195.3810  185.0450 C   0  0  0  0  0  0  0  0  0  0  0  0
  158.8240  192.8950  193.3260 F   0  0  0  0  0  0  0  0  0  0  0  0
  158.8550  193.5490  184.8190 S   0  0  0  0  0  0  0  0  0  0  0  0
  150.8400  188.0230  191.6560 H   0  0  0  0  0  0  0  0  0  0  0  0
  149.9890  188.5580  193.1000 H   0  0  0  0  0  0  0  0  0  0  0  0
  150.1750  189.6430  191.7330 H   0  0  0  0  0  0  0  0  0  0  0  0
  156.3390  189.2010  193.8370 H   0  0  0  0  0  0  0  0  0  0  0  0
  158.5190  190.3630  193.8110 H   0  0  0  0  0  0  0  0  0  0  0  0
  156.5400  194.0550  192.9120 H   0  0  0  0  0  0  0  0  0  0  0  0
  154.3600  192.8950  192.9480 H   0  0  0  0  0  0  0  0  0  0  0  0
  152.2620  190.3290  190.3040 H   0  0  0  0  0  0  0  0  0  0  0  0
  154.0110  190.3540  190.4640 H   0  0  0  0  0  0  0  0  0  0  0  0
  152.7650  194.8680  187.6350 H   0  0  0  0  0  0  0  0  0  0  0  0
  156.6590  193.4740  188.7890 H   0  0  0  0  0  0  0  0  0  0  0  0
  155.5580  192.1060  190.5560 H   0  0  0  0  0  0  0  0  0  0  0  0
  156.0640  192.8780  184.8380 H   0  0  0  0  0  0  0  0  0  0  0  0
  155.7400  192.5350  186.4660 H   0  0  0  0  0  0  0  0  0  0  0  0
  158.1510  192.8820  187.0190 H   0  0  0  0  0  0  0  0  0  0  0  0
  157.9100  191.6260  185.9260 H   0  0  0  0  0  0  0  0  0  0  0  0
  158.8120  195.6740  185.9840 H   0  0  0  0  0  0  0  0  0  0  0  0
  158.8210  195.8870  184.3260 H   0  0  0  0  0  0  0  0  0  0  0  0
  156.6230  196.4340  185.1460 H   0  0  0  0  0  0  0  0  0  0  0  0
  156.5150  195.1000  184.0580 H   0  0  0  0  0  0  0  0  0  0  0  0
  183.7460  190.9610  194.4660 N   0  0  0  0  0  0  0  0  0  0  0  0
  182.1310  193.4140  192.3370 C   0  0  0  0  0  0  0  0  0  0  0  0
  182.8170  191.9750  194.1410 O   0  0  0  0  0  0  0  0  0  0  0  0
  183.0180  192.3460  192.8600 C   0  0  0  0  0  0  0  0  0  0  0  0
  187.2450  192.8190  189.2260 N   0  0  0  0  0  0  0  0  0  0  0  0
  185.9380  192.1780  191.0260 O   0  0  0  0  0  0  0  0  0  0  0  0
  184.0310  191.6270  192.3220 C   0  0  0  0  0  0  0  0  0  0  0  0
  189.2580  189.9500  186.0710 N   0  0  0  0  0  0  0  0  0  0  0  0
  190.6940  191.3160  187.1210 O   0  0  0  0  0  0  0  0  0  0  0  0
  184.4490  190.7720  193.3820 C   0  0  0  0  0  0  0  0  0  0  0  0
  189.3650  185.7120  185.2080 O   0  0  0  0  0  0  0  0  0  0  0  0
  185.5170  189.7540  193.4020 C   0  0  0  0  0  0  0  0  0  0  0  0
  188.6090  187.3310  183.5130 O   0  0  0  0  0  0  0  0  0  0  0  0
  185.2180  188.4180  193.6480 C   0  0  0  0  0  0  0  0  0  0  0  0
  186.2100  187.4520  193.6350 C   0  0  0  0  0  0  0  0  0  0  0  0
  187.4930  187.8490  193.3740 C   0  0  0  0  0  0  0  0  0  0  0  0
  187.8390  189.1500  193.1330 C   0  0  0  0  0  0  0  0  0  0  0  0
  186.8390  190.1070  193.1510 C   0  0  0  0  0  0  0  0  0  0  0  0
  184.6040  191.6860  190.9400 C   0  0  0  0  0  0  0  0  0  0  0  0
  186.7840  191.8600  190.0140 C   0  0  0  0  0  0  0  0  0  0  0  0
  188.1250  192.4560  188.2790 C   0  0  0  0  0  0  0  0  0  0  0  0
  188.5670  191.1540  188.0890 C   0  0  0  0  0  0  0  0  0  0  0  0
  188.0470  190.1790  188.9290 C   0  0  0  0  0  0  0  0  0  0  0  0
  187.1390  190.5170  189.9120 C   0  0  0  0  0  0  0  0  0  0  0  0
  189.5890  190.8110  187.0550 C   0  0  0  0  0  0  0  0  0  0  0  0
  187.9580  189.3010  185.8630 C   0  0  0  0  0  0  0  0  0  0  0  0
  187.9910  187.7860  186.0110 C   0  0  0  0  0  0  0  0  0  0  0  0
  190.5600  188.0340  185.1020 C   0  0  0  0  0  0  0  0  0  0  0  0
  190.2360  189.5230  185.0660 C   0  0  0  0  0  0  0  0  0  0  0  0
  188.4700  186.9030  193.3460 F   0  0  0  0  0  0  0  0  0  0  0  0
  189.1020  187.0770  184.8390 S   0  0  0  0  0  0  0  0  0  0  0  0
  181.3730  192.9960  191.6770 H   0  0  0  0  0  0  0  0  0  0  0  0
  181.6190  193.9700  193.1210 H   0  0  0  0  0  0  0  0  0  0  0  0
  182.7100  194.1280  191.7540 H   0  0  0  0  0  0  0  0  0  0  0  0
  184.1900  188.1280  193.8570 H   0  0  0  0  0  0  0  0  0  0  0  0
  185.9670  186.4120  193.8300 H   0  0  0  0  0  0  0  0  0  0  0  0
  188.8690  189.4340  192.9320 H   0  0  0  0  0  0  0  0  0  0  0  0
  187.0930  191.1500  192.9680 H   0  0  0  0  0  0  0  0  0  0  0  0
  184.0060  192.3550  190.3250 H   0  0  0  0  0  0  0  0  0  0  0  0
  184.5690  190.6980  190.4850 H   0  0  0  0  0  0  0  0  0  0  0  0
  188.4780  193.2770  187.6570 H   0  0  0  0  0  0  0  0  0  0  0  0
  188.3540  189.1420  188.8090 H   0  0  0  0  0  0  0  0  0  0  0  0
  186.7130  189.7670  190.5760 H   0  0  0  0  0  0  0  0  0  0  0  0
  187.6040  189.5250  184.8580 H   0  0  0  0  0  0  0  0  0  0  0  0
  187.1770  189.7270  186.4860 H   0  0  0  0  0  0  0  0  0  0  0  0
  188.2510  187.5410  187.0390 H   0  0  0  0  0  0  0  0  0  0  0  0
  186.9820  187.3830  185.9460 H   0  0  0  0  0  0  0  0  0  0  0  0
  191.1100  187.7730  186.0040 H   0  0  0  0  0  0  0  0  0  0  0  0
  191.3160  187.8300  184.3470 H   0  0  0  0  0  0  0  0  0  0  0  0
  191.1590  190.0900  185.1670 H   0  0  0  0  0  0  0  0  0  0  0  0
  189.8570  189.7810  184.0790 H   0  0  0  0  0  0  0  0  0  0  0  0
  194.3020  162.6450  194.4510 N   0  0  0  0  0  0  0  0  0  0  0  0
  196.1350  164.9410  192.3230 C   0  0  0  0  0  0  0  0  0  0  0  0
  194.9790  163.8420  194.1260 O   0  0  0  0  0  0  0  0  0  0  0  0
  195.3940  163.7670  192.8450 C   0  0  0  0  0  0  0  0  0  0  0  0
  197.1530  159.8940  189.2120 N   0  0  0  0  0  0  0  0  0  0  0  0
  196.1380  160.9390  191.0120 O   0  0  0  0  0  0  0  0  0  0  0  0
  195.0240  162.5810  192.3080 C   0  0  0  0  0  0  0  0  0  0  0  0
  195.0480  157.0920  186.0560 N   0  0  0  0  0  0  0  0  0  0  0  0
  196.7920  156.1490  187.1060 O   0  0  0  0  0  0  0  0  0  0  0  0
  194.3400  161.9190  193.3680 C   0  0  0  0  0  0  0  0  0  0  0  0
  191.0520  155.6770  185.1930 O   0  0  0  0  0  0  0  0  0  0  0  0
  193.7020  160.5880  193.3870 C   0  0  0  0  0  0  0  0  0  0  0  0
  192.3580  156.8980  183.4980 O   0  0  0  0  0  0  0  0  0  0  0  0
  192.3400  160.4580  193.6340 C   0  0  0  0  0  0  0  0  0  0  0  0
  191.7290  159.2160  193.6200 C   0  0  0  0  0  0  0  0  0  0  0  0
  192.5030  158.1190  193.3590 C   0  0  0  0  0  0  0  0  0  0  0  0
  193.8480  158.1920  193.1180 C   0  0  0  0  0  0  0  0  0  0  0  0
  194.4480  159.4400  193.1360 C   0  0  0  0  0  0  0  0  0  0  0  0
  195.2580  162.0550  190.9250 C   0  0  0  0  0  0  0  0  0  0  0  0
  196.0980  160.0350  190.0000 C   0  0  0  0  0  0  0  0  0  0  0  0
  197.0810  158.9450  188.2650 C   0  0  0  0  0  0  0  0  0  0  0  0
  195.9790  158.1220  188.0750 C   0  0  0  0  0  0  0  0  0  0  0  0
  194.8910  158.3140  188.9140 C   0  0  0  0  0  0  0  0  0  0  0  0
  194.9310  159.2820  189.8980 C   0  0  0  0  0  0  0  0  0  0  0  0
  195.9690  157.0430  187.0400 C   0  0  0  0  0  0  0  0  0  0  0  0
  194.0290  158.1270  185.8480 C   0  0  0  0  0  0  0  0  0  0  0  0
  192.5980  157.6270  185.9960 C   0  0  0  0  0  0  0  0  0  0  0  0
  193.6300  155.2600  185.0870 C   0  0  0  0  0  0  0  0  0  0  0  0
  194.9450  156.0300  185.0510 C   0  0  0  0  0  0  0  0  0  0  0  0
  191.9060  156.8970  193.3310 F   0  0  0  0  0  0  0  0  0  0  0  0
  192.2680  156.3500  184.8240 S   0  0  0  0  0  0  0  0  0  0  0  0
  195.5030  165.5320  191.6620 H   0  0  0  0  0  0  0  0  0  0  0  0
  196.5050  165.5990  193.1070 H   0  0  0  0  0  0  0  0  0  0  0  0
  196.9920  164.6120  191.7390 H   0  0  0  0  0  0  0  0  0  0  0  0
  191.7460  161.3460  193.8420 H   0  0  0  0  0  0  0  0  0  0  0  0
  190.6640  159.1250  193.8150 H   0  0  0  0  0  0  0  0  0  0  0  0
  194.4370  157.3010  192.9170 H   0  0  0  0  0  0  0  0  0  0  0  0
  195.5180  159.5220  192.9540 H   0  0  0  0  0  0  0  0  0  0  0  0
  195.7080  162.8300  190.3100 H   0  0  0  0  0  0  0  0  0  0  0  0
  194.3070  161.7820  190.4700 H   0  0  0  0  0  0  0  0  0  0  0  0
  197.9700  158.8630  187.6420 H   0  0  0  0  0  0  0  0  0  0  0  0
  194.0000  157.7010  188.7950 H   0  0  0  0  0  0  0  0  0  0  0  0
  194.0860  159.4550  190.5610 H   0  0  0  0  0  0  0  0  0  0  0  0
  194.1320  158.5330  184.8430 H   0  0  0  0  0  0  0  0  0  0  0  0
  194.1920  159.0020  186.4710 H   0  0  0  0  0  0  0  0  0  0  0  0
  192.4460  157.3030  187.0240 H   0  0  0  0  0  0  0  0  0  0  0  0
  191.9030  158.4610  185.9310 H   0  0  0  0  0  0  0  0  0  0  0  0
  193.5520  154.6560  185.9890 H   0  0  0  0  0  0  0  0  0  0  0  0
  193.6700  154.4780  184.3320 H   0  0  0  0  0  0  0  0  0  0  0  0
  195.7710  155.3280  185.1520 H   0  0  0  0  0  0  0  0  0  0  0  0
  195.0740  156.4700  184.0640 H   0  0  0  0  0  0  0  0  0  0  0  0
  170.6430  143.8320  194.4510 N   0  0  0  0  0  0  0  0  0  0  0  0
  173.3930  142.8000  192.3230 C   0  0  0  0  0  0  0  0  0  0  0  0
  171.9900  143.5590  194.1260 O   0  0  0  0  0  0  0  0  0  0  0  0
  172.0460  143.1410  192.8460 C   0  0  0  0  0  0  0  0  0  0  0  0
  168.9080  140.2700  189.2120 N   0  0  0  0  0  0  0  0  0  0  0  0
  169.5880  141.5580  191.0120 O   0  0  0  0  0  0  0  0  0  0  0  0
  170.8040  143.1260  192.3080 C   0  0  0  0  0  0  0  0  0  0  0  0
  165.5920  141.4050  186.0560 N   0  0  0  0  0  0  0  0  0  0  0  0
  165.2360  139.4550  187.1060 O   0  0  0  0  0  0  0  0  0  0  0  0
  169.9630  143.5710  193.3680 C   0  0  0  0  0  0  0  0  0  0  0  0
  163.0110  144.7670  185.1930 O   0  0  0  0  0  0  0  0  0  0  0  0
  168.5010  143.7660  193.3870 C   0  0  0  0  0  0  0  0  0  0  0  0
  164.5760  143.9030  183.4980 O   0  0  0  0  0  0  0  0  0  0  0  0
  167.9560  145.0220  193.6340 C   0  0  0  0  0  0  0  0  0  0  0  0
  166.5850  145.2180  193.6200 C   0  0  0  0  0  0  0  0  0  0  0  0
  165.7820  144.1420  193.3590 C   0  0  0  0  0  0  0  0  0  0  0  0
  166.2670  142.8870  193.1180 C   0  0  0  0  0  0  0  0  0  0  0  0
  167.6400  142.7020  193.1360 C   0  0  0  0  0  0  0  0  0  0  0  0
  170.3770  142.7410  190.9260 C   0  0  0  0  0  0  0  0  0  0  0  0
  168.7160  141.3170  190.0000 C   0  0  0  0  0  0  0  0  0  0  0  0
  167.9830  140.0450  188.2650 C   0  0  0  0  0  0  0  0  0  0  0  0
  166.8600  140.8380  188.0750 C   0  0  0  0  0  0  0  0  0  0  0  0
  166.7060  141.9320  188.9140 C   0  0  0  0  0  0  0  0  0  0  0  0
  167.6390  142.1930  189.8980 C   0  0  0  0  0  0  0  0  0  0  0  0
  165.8310  140.5140  187.0400 C   0  0  0  0  0  0  0  0  0  0  0  0
  166.2610  142.6940  185.8480 C   0  0  0  0  0  0  0  0  0  0  0  0
  165.3430  143.9000  185.9960 C   0  0  0  0  0  0  0  0  0  0  0  0
  163.4120  142.1870  185.0870 C   0  0  0  0  0  0  0  0  0  0  0  0
  164.5510  141.1740  185.0510 C   0  0  0  0  0  0  0  0  0  0  0  0
  164.4350  144.3320  193.3310 F   0  0  0  0  0  0  0  0  0  0  0  0
  164.0270  143.8190  184.8240 S   0  0  0  0  0  0  0  0  0  0  0  0
  173.7590  143.5830  191.6630 H   0  0  0  0  0  0  0  0  0  0  0  0
  174.1330  142.6510  193.1070 H   0  0  0  0  0  0  0  0  0  0  0  0
  173.3450  141.8820  191.7400 H   0  0  0  0  0  0  0  0  0  0  0  0
  168.6160  145.8610  193.8430 H   0  0  0  0  0  0  0  0  0  0  0  0
  166.1700  146.2020  193.8150 H   0  0  0  0  0  0  0  0  0  0  0  0
  165.6020  142.0510  192.9180 H   0  0  0  0  0  0  0  0  0  0  0  0
  168.0480  141.7090  192.9540 H   0  0  0  0  0  0  0  0  0  0  0  0
  171.2530  142.5520  190.3110 H   0  0  0  0  0  0  0  0  0  0  0  0
  169.8230  143.5600  190.4700 H   0  0  0  0  0  0  0  0  0  0  0  0
  168.1810  139.1740  187.6430 H   0  0  0  0  0  0  0  0  0  0  0  0
  165.8470  142.5900  188.7950 H   0  0  0  0  0  0  0  0  0  0  0  0
  167.5420  143.0510  190.5610 H   0  0  0  0  0  0  0  0  0  0  0  0
  166.6800  142.7210  184.8430 H   0  0  0  0  0  0  0  0  0  0  0  0
  167.1440  142.8090  186.4710 H   0  0  0  0  0  0  0  0  0  0  0  0
  164.9890  143.9450  187.0240 H   0  0  0  0  0  0  0  0  0  0  0  0
  165.9220  144.8200  185.9310 H   0  0  0  0  0  0  0  0  0  0  0  0
  162.8140  142.0740  185.9890 H   0  0  0  0  0  0  0  0  0  0  0  0
  162.6810  141.9060  184.3310 H   0  0  0  0  0  0  0  0  0  0  0  0
  164.1390  140.1720  185.1520 H   0  0  0  0  0  0  0  0  0  0  0  0
  165.0100  141.1880  184.0640 H   0  0  0  0  0  0  0  0  0  0  0  0
  145.3930  160.5350  194.4530 N   0  0  0  0  0  0  0  0  0  0  0  0
  145.2610  157.6000  192.3250 C   0  0  0  0  0  0  0  0  0  0  0  0
  145.5490  159.1690  194.1280 O   0  0  0  0  0  0  0  0  0  0  0  0
  145.1690  158.9860  192.8470 C   0  0  0  0  0  0  0  0  0  0  0  0
  141.4700  161.0840  189.2120 N   0  0  0  0  0  0  0  0  0  0  0  0
  142.9040  160.8350  191.0130 O   0  0  0  0  0  0  0  0  0  0  0  0
  144.7710  160.1630  192.3090 C   0  0  0  0  0  0  0  0  0  0  0  0
  141.5260  164.5870  186.0560 N   0  0  0  0  0  0  0  0  0  0  0  0
  139.5600  164.3240  187.1050 O   0  0  0  0  0  0  0  0  0  0  0  0
  144.9350  161.1010  193.3690 C   0  0  0  0  0  0  0  0  0  0  0  0
  143.9260  168.0800  185.1930 O   0  0  0  0  0  0  0  0  0  0  0  0
  144.6680  162.5520  193.3880 C   0  0  0  0  0  0  0  0  0  0  0  0
  143.5880  166.3250  183.4970 O   0  0  0  0  0  0  0  0  0  0  0  0
  145.6940  163.4580  193.6340 C   0  0  0  0  0  0  0  0  0  0  0  0
  145.4570  164.8220  193.6210 C   0  0  0  0  0  0  0  0  0  0  0  0
  144.1860  165.2540  193.3590 C   0  0  0  0  0  0  0  0  0  0  0  0
  143.1420  164.4040  193.1180 C   0  0  0  0  0  0  0  0  0  0  0  0
  143.3910  163.0420  193.1360 C   0  0  0  0  0  0  0  0  0  0  0  0
  144.2730  160.4500  190.9270 C   0  0  0  0  0  0  0  0  0  0  0  0
  142.4060  161.5890  190.0000 C   0  0  0  0  0  0  0  0  0  0  0  0
  140.9710  161.8930  188.2650 C   0  0  0  0  0  0  0  0  0  0  0  0
  141.3780  163.2070  188.0740 C   0  0  0  0  0  0  0  0  0  0  0  0
  142.3700  163.6920  188.9140 C   0  0  0  0  0  0  0  0  0  0  0  0
  142.9070  162.8850  189.8980 C   0  0  0  0  0  0  0  0  0  0  0  0
  140.7520  164.0850  187.0400 C   0  0  0  0  0  0  0  0  0  0  0  0
  142.9580  164.3490  185.8480 C   0  0  0  0  0  0  0  0  0  0  0  0
  143.8220  165.5950  185.9960 C   0  0  0  0  0  0  0  0  0  0  0  0
  141.5960  166.9020  185.0860 C   0  0  0  0  0  0  0  0  0  0  0  0
  140.9850  165.5060  185.0500 C   0  0  0  0  0  0  0  0  0  0  0  0
  143.9510  166.5930  193.3310 F   0  0  0  0  0  0  0  0  0  0  0  0
  143.3380  166.8210  184.8230 S   0  0  0  0  0  0  0  0  0  0  0  0
  146.1200  157.4940  191.6650 H   0  0  0  0  0  0  0  0  0  0  0  0
  145.3480  156.8500  193.1090 H   0  0  0  0  0  0  0  0  0  0  0  0
  144.3730  157.3620  191.7410 H   0  0  0  0  0  0  0  0  0  0  0  0
  146.6960  163.0890  193.8440 H   0  0  0  0  0  0  0  0  0  0  0  0
  146.2650  165.5220  193.8160 H   0  0  0  0  0  0  0  0  0  0  0  0
  142.1420  164.7790  192.9170 H   0  0  0  0  0  0  0  0  0  0  0  0
  142.5720  162.3470  192.9540 H   0  0  0  0  0  0  0  0  0  0  0  0
  144.3650  159.5580  190.3120 H   0  0  0  0  0  0  0  0  0  0  0  0
  144.8810  161.2300  190.4710 H   0  0  0  0  0  0  0  0  0  0  0  0
  140.2030  161.4360  187.6420 H   0  0  0  0  0  0  0  0  0  0  0  0
  142.7310  164.7110  188.7940 H   0  0  0  0  0  0  0  0  0  0  0  0
  143.6920  163.2420  190.5620 H   0  0  0  0  0  0  0  0  0  0  0  0
  143.1140  163.9590  184.8430 H   0  0  0  0  0  0  0  0  0  0  0  0
  143.3410  163.5450  186.4720 H   0  0  0  0  0  0  0  0  0  0  0  0
  143.7550  165.9460  187.0240 H   0  0  0  0  0  0  0  0  0  0  0  0
  144.8750  165.3290  185.9310 H   0  0  0  0  0  0  0  0  0  0  0  0
  141.3040  167.4370  185.9880 H   0  0  0  0  0  0  0  0  0  0  0  0
  141.1040  167.5110  184.3300 H   0  0  0  0  0  0  0  0  0  0  0  0
  139.9040  165.5890  185.1510 H   0  0  0  0  0  0  0  0  0  0  0  0
  141.1400  165.0740  184.0630 H   0  0  0  0  0  0  0  0  0  0  0  0
  1  3  1  0  0  0  0
  2  4  1  0  0  0  0
  3  4  1  0  0  0  0
  4  7  2  0  0  0  0
  1 10  2  0  0  0  0
  7 10  1  0  0  0  0
 10 12  1  0  0  0  0
 12 14  1  0  0  0  0
 14 15  2  0  0  0  0
 15 16  1  0  0  0  0
 16 17  2  0  0  0  0
 12 18  2  0  0  0  0
 17 18  1  0  0  0  0
  6 19  1  0  0  0  0
  7 19  1  0  0  0  0
  5 20  1  0  0  0  0
  6 20  1  0  0  0  0
  5 21  2  0  0  0  0
 21 22  1  0  0  0  0
 22 23  2  0  0  0  0
 20 24  2  0  0  0  0
 23 24  1  0  0  0  0
  8 25  1  0  0  0  0
  9 25  2  0  0  0  0
 22 25  1  0  0  0  0
  8 26  1  0  0  0  0
 26 27  1  0  0  0  0
  8 29  1  0  0  0  0
 28 29  1  0  0  0  0
 16 30  1  0  0  0  0
 11 31  2  0  0  0  0
 13 31  2  0  0  0  0
 27 31  1  0  0  0  0
 28 31  1  0  0  0  0
  2 32  1  0  0  0  0
  2 33  1  0  0  0  0
  2 34  1  0  0  0  0
 14 35  1  0  0  0  0
 15 36  1  0  0  0  0
 17 37  1  0  0  0  0
 18 38  1  0  0  0  0
 19 39  1  0  0  0  0
 19 40  1  0  0  0  0
 21 41  1  0  0  0  0
 23 42  1  0  0  0  0
 24 43  1  0  0  0  0
 26 44  1  0  0  0  0
 26 45  1  0  0  0  0
 27 46  1  0  0  0  0
 27 47  1  0  0  0  0
 28 48  1  0  0  0  0
 28 49  1  0  0  0  0
 29 50  1  0  0  0  0
 29 51  1  0  0  0  0
 52 54  1  0  0  0  0
 53 55  1  0  0  0  0
 54 55  1  0  0  0  0
 55 58  2  0  0  0  0
 52 61  2  0  0  0  0
 58 61  1  0  0  0  0
 61 63  1  0  0  0  0
 63 65  1  0  0  0  0
 65 66  2  0  0  0  0
 66 67  1  0  0  0  0
 67 68  2  0  0  0  0
 63 69  2  0  0  0  0
 68 69  1  0  0  0  0
 57 70  1  0  0  0  0
 58 70  1  0  0  0  0
 56 71  1  0  0  0  0
 57 71  1  0  0  0  0
 56 72  2  0  0  0  0
 72 73  1  0  0  0  0
 73 74  2  0  0  0  0
 71 75  2  0  0  0  0
 74 75  1  0  0  0  0
 59 76  1  0  0  0  0
 60 76  2  0  0  0  0
 73 76  1  0  0  0  0
 59 77  1  0  0  0  0
 77 78  1  0  0  0  0
 59 80  1  0  0  0  0
 79 80  1  0  0  0  0
 67 81  1  0  0  0  0
 62 82  2  0  0  0  0
 64 82  2  0  0  0  0
 78 82  1  0  0  0  0
 79 82  1  0  0  0  0
 53 83  1  0  0  0  0
 53 84  1  0  0  0  0
 53 85  1  0  0  0  0
 65 86  1  0  0  0  0
 66 87  1  0  0  0  0
 68 88  1  0  0  0  0
 69 89  1  0  0  0  0
 70 90  1  0  0  0  0
 70 91  1  0  0  0  0
 72 92  1  0  0  0  0
 74 93  1  0  0  0  0
 75 94  1  0  0  0  0
 77 95  1  0  0  0  0
 77 96  1  0  0  0  0
 78 97  1  0  0  0  0
 78 98  1  0  0  0  0
 79 99  1  0  0  0  0
 79100  1  0  0  0  0
 80101  1  0  0  0  0
 80102  1  0  0  0  0
103105  1  0  0  0  0
104106  1  0  0  0  0
105106  1  0  0  0  0
106109  2  0  0  0  0
103112  2  0  0  0  0
109112  1  0  0  0  0
112114  1  0  0  0  0
114116  1  0  0  0  0
116117  2  0  0  0  0
117118  1  0  0  0  0
118119  2  0  0  0  0
114120  2  0  0  0  0
119120  1  0  0  0  0
108121  1  0  0  0  0
109121  1  0  0  0  0
107122  1  0  0  0  0
108122  1  0  0  0  0
107123  2  0  0  0  0
123124  1  0  0  0  0
124125  2  0  0  0  0
122126  2  0  0  0  0
125126  1  0  0  0  0
110127  1  0  0  0  0
111127  2  0  0  0  0
124127  1  0  0  0  0
110128  1  0  0  0  0
128129  1  0  0  0  0
110131  1  0  0  0  0
130131  1  0  0  0  0
118132  1  0  0  0  0
113133  2  0  0  0  0
115133  2  0  0  0  0
129133  1  0  0  0  0
130133  1  0  0  0  0
104134  1  0  0  0  0
104135  1  0  0  0  0
104136  1  0  0  0  0
116137  1  0  0  0  0
117138  1  0  0  0  0
119139  1  0  0  0  0
120140  1  0  0  0  0
121141  1  0  0  0  0
121142  1  0  0  0  0
123143  1  0  0  0  0
125144  1  0  0  0  0
126145  1  0  0  0  0
128146  1  0  0  0  0
128147  1  0  0  0  0
129148  1  0  0  0  0
129149  1  0  0  0  0
130150  1  0  0  0  0
130151  1  0  0  0  0
131152  1  0  0  0  0
131153  1  0  0  0  0
154156  1  0  0  0  0
155157  1  0  0  0  0
156157  1  0  0  0  0
157160  2  0  0  0  0
154163  2  0  0  0  0
160163  1  0  0  0  0
163165  1  0  0  0  0
165167  1  0  0  0  0
167168  2  0  0  0  0
168169  1  0  0  0  0
169170  2  0  0  0  0
165171  2  0  0  0  0
170171  1  0  0  0  0
159172  1  0  0  0  0
160172  1  0  0  0  0
158173  1  0  0  0  0
159173  1  0  0  0  0
158174  2  0  0  0  0
174175  1  0  0  0  0
175176  2  0  0  0  0
173177  2  0  0  0  0
176177  1  0  0  0  0
161178  1  0  0  0  0
162178  2  0  0  0  0
175178  1  0  0  0  0
161179  1  0  0  0  0
179180  1  0  0  0  0
161182  1  0  0  0  0
181182  1  0  0  0  0
169183  1  0  0  0  0
164184  2  0  0  0  0
166184  2  0  0  0  0
180184  1  0  0  0  0
181184  1  0  0  0  0
155185  1  0  0  0  0
155186  1  0  0  0  0
155187  1  0  0  0  0
167188  1  0  0  0  0
168189  1  0  0  0  0
170190  1  0  0  0  0
171191  1  0  0  0  0
172192  1  0  0  0  0
172193  1  0  0  0  0
174194  1  0  0  0  0
176195  1  0  0  0  0
177196  1  0  0  0  0
179197  1  0  0  0  0
179198  1  0  0  0  0
180199  1  0  0  0  0
180200  1  0  0  0  0
181201  1  0  0  0  0
181202  1  0  0  0  0
182203  1  0  0  0  0
182204  1  0  0  0  0
205207  1  0  0  0  0
206208  1  0  0  0  0
207208  1  0  0  0  0
208211  2  0  0  0  0
205214  2  0  0  0  0
211214  1  0  0  0  0
214216  1  0  0  0  0
216218  1  0  0  0  0
218219  2  0  0  0  0
219220  1  0  0  0  0
220221  2  0  0  0  0
216222  2  0  0  0  0
221222  1  0  0  0  0
210223  1  0  0  0  0
211223  1  0  0  0  0
209224  1  0  0  0  0
210224  1  0  0  0  0
209225  2  0  0  0  0
225226  1  0  0  0  0
226227  2  0  0  0  0
224228  2  0  0  0  0
227228  1  0  0  0  0
212229  1  0  0  0  0
213229  2  0  0  0  0
226229  1  0  0  0  0
212230  1  0  0  0  0
230231  1  0  0  0  0
212233  1  0  0  0  0
232233  1  0  0  0  0
220234  1  0  0  0  0
215235  2  0  0  0  0
217235  2  0  0  0  0
231235  1  0  0  0  0
232235  1  0  0  0  0
206236  1  0  0  0  0
206237  1  0  0  0  0
206238  1  0  0  0  0
218239  1  0  0  0  0
219240  1  0  0  0  0
221241  1  0  0  0  0
222242  1  0  0  0  0
223243  1  0  0  0  0
223244  1  0  0  0  0
225245  1  0  0  0  0
227246  1  0  0  0  0
228247  1  0  0  0  0
230248  1  0  0  0  0
230249  1  0  0  0  0
231250  1  0  0  0  0
231251  1  0  0  0  0
232252  1  0  0  0  0
232253  1  0  0  0  0
233254  1  0  0  0  0
233255  1  0  0  0  0
M  END
$$$$
