8QUC
  PyMOL3.1          3D                             0

 25 27  0  0  0  0  0  0  0  0999 V2000
  130.4910  103.4740  157.8860 C   0  0  0  0  0  0  0  0  0  0  0  0
  133.9390  103.9220  156.8570 N   0  0  0  0  0  0  0  0  0  0  0  0
  135.8490  104.0200  155.6310 O   0  0  0  0  0  0  0  0  0  0  0  0
  131.6160  103.2430  156.9040 C   0  0  0  0  0  0  0  0  0  0  0  0
  133.7710  104.6140  154.7580 N   0  0  0  0  0  0  0  0  0  0  0  0
  134.8310  104.9220  149.3880 O   0  0  0  0  0  0  0  0  0  0  0  0
  132.5750  104.4210  156.7670 C   0  0  0  0  0  0  0  0  0  0  0  0
  134.1340  105.9510  151.3290 N   0  0  0  0  0  0  0  0  0  0  0  0
  132.2990  107.6780  146.3730 O   0  0  0  0  0  0  0  0  0  0  0  0
  134.6570  104.1600  155.7590 C   0  0  0  0  0  0  0  0  0  0  0  0
  131.6920  105.6080  154.8340 O   0  0  0  0  0  0  0  0  0  0  0  0
  134.0550  104.6760  153.3530 C   0  0  0  0  0  0  0  0  0  0  0  0
  134.5160  103.5630  152.6830 C   0  0  0  0  0  0  0  0  0  0  0  0
  134.7770  103.6550  151.3310 C   0  0  0  0  0  0  0  0  0  0  0  0
  134.5660  104.8710  150.7220 C   0  0  0  0  0  0  0  0  0  0  0  0
  134.6760  106.0970  148.6410 C   0  0  0  0  0  0  0  0  0  0  0  0
  135.6750  107.0400  148.6600 C   0  0  0  0  0  0  0  0  0  0  0  0
  135.5210  108.1920  147.9100 C   0  0  0  0  0  0  0  0  0  0  0  0
  134.3870  108.4100  147.1390 C   0  0  0  0  0  0  0  0  0  0  0  0
  134.2260  109.6510  146.3270 C   0  0  0  0  0  0  0  0  0  0  0  0
  133.3890  107.4190  147.1430 C   0  0  0  0  0  0  0  0  0  0  0  0
  131.0970  106.9800  146.6650 C   0  0  0  0  0  0  0  0  0  0  0  0
  133.5350  106.2650  147.8860 C   0  0  0  0  0  0  0  0  0  0  0  0
  133.8750  105.8550  152.6450 C   0  0  0  0  0  0  0  0  0  0  0  0
  132.5710  104.9710  155.3550 C   0  0  0  0  0  0  0  0  0  0  0  0
  1  4  1  0  0  0  0
  2  7  1  0  0  0  0
  4  7  1  0  0  0  0
  2 10  1  0  0  0  0
  3 10  2  0  0  0  0
  5 10  1  0  0  0  0
  5 12  1  0  0  0  0
 12 13  1  0  0  0  0
 13 14  2  0  0  0  0
  6 15  1  0  0  0  0
  8 15  2  0  0  0  0
 14 15  1  0  0  0  0
  6 16  1  0  0  0  0
 16 17  1  0  0  0  0
 17 18  2  0  0  0  0
 18 19  1  0  0  0  0
 19 20  1  0  0  0  0
  9 21  1  0  0  0  0
 19 21  2  0  0  0  0
  9 22  1  0  0  0  0
 16 23  2  0  0  0  0
 21 23  1  0  0  0  0
  8 24  1  0  0  0  0
 12 24  2  0  0  0  0
  5 25  1  0  0  0  0
  7 25  1  0  0  0  0
 11 25  2  0  0  0  0
M  END
$$$$
