8QUC
  PyMOL3.1          3D                             0

 25 27  0  0  0  0  0  0  0  0999 V2000
  162.4910  130.4390  157.8610 C   0  0  0  0  0  0  0  0  0  0  0  0
  162.0450  133.8880  156.8350 N   0  0  0  0  0  0  0  0  0  0  0  0
  161.9470  135.7990  155.6110 O   0  0  0  0  0  0  0  0  0  0  0  0
  162.7220  131.5640  156.8790 C   0  0  0  0  0  0  0  0  0  0  0  0
  161.3500  133.7220  154.7370 N   0  0  0  0  0  0  0  0  0  0  0  0
  161.0370  134.7880  149.3680 O   0  0  0  0  0  0  0  0  0  0  0  0
  161.5440  132.5240  156.7450 C   0  0  0  0  0  0  0  0  0  0  0  0
  160.0090  134.0900  151.3100 N   0  0  0  0  0  0  0  0  0  0  0  0
  158.2750  132.2610  146.3540 O   0  0  0  0  0  0  0  0  0  0  0  0
  161.8060  134.6070  155.7380 C   0  0  0  0  0  0  0  0  0  0  0  0
  160.3540  131.6440  154.8120 O   0  0  0  0  0  0  0  0  0  0  0  0
  161.2870  134.0080  153.3320 C   0  0  0  0  0  0  0  0  0  0  0  0
  162.3990  134.4680  152.6610 C   0  0  0  0  0  0  0  0  0  0  0  0
  162.3060  134.7310  151.3100 C   0  0  0  0  0  0  0  0  0  0  0  0
  161.0890  134.5210  150.7020 C   0  0  0  0  0  0  0  0  0  0  0  0
  159.8610  134.6340  148.6220 C   0  0  0  0  0  0  0  0  0  0  0  0
  158.9190  135.6340  148.6430 C   0  0  0  0  0  0  0  0  0  0  0  0
  157.7660  135.4820  147.8950 C   0  0  0  0  0  0  0  0  0  0  0  0
  157.5460  134.3490  147.1230 C   0  0  0  0  0  0  0  0  0  0  0  0
  156.3040  134.1890  146.3120 C   0  0  0  0  0  0  0  0  0  0  0  0
  158.5360  133.3500  147.1250 C   0  0  0  0  0  0  0  0  0  0  0  0
  158.9730  131.0580  146.6440 C   0  0  0  0  0  0  0  0  0  0  0  0
  159.6910  133.4940  147.8670 C   0  0  0  0  0  0  0  0  0  0  0  0
  160.1070  133.8290  152.6250 C   0  0  0  0  0  0  0  0  0  0  0  0
  160.9930  132.5220  155.3330 C   0  0  0  0  0  0  0  0  0  0  0  0
  1  4  1  0  0  0  0
  2  7  1  0  0  0  0
  4  7  1  0  0  0  0
  2 10  1  0  0  0  0
  3 10  2  0  0  0  0
  5 10  1  0  0  0  0
  5 12  1  0  0  0  0
 12 13  1  0  0  0  0
 13 14  2  0  0  0  0
  6 15  1  0  0  0  0
  8 15  2  0  0  0  0
 14 15  1  0  0  0  0
  6 16  1  0  0  0  0
 16 17  1  0  0  0  0
 17 18  2  0  0  0  0
 18 19  1  0  0  0  0
 19 20  1  0  0  0  0
  9 21  1  0  0  0  0
 19 21  2  0  0  0  0
  9 22  1  0  0  0  0
 16 23  2  0  0  0  0
 21 23  1  0  0  0  0
  8 24  1  0  0  0  0
 12 24  2  0  0  0  0
  5 25  1  0  0  0  0
  7 25  1  0  0  0  0
 11 25  2  0  0  0  0
M  END
$$$$
