8QUC
  PyMOL3.1          3D                             0

 25 27  0  0  0  0  0  0  0  0999 V2000
  103.4090  135.4920  157.8250 C   0  0  0  0  0  0  0  0  0  0  0  0
  103.8580  132.0440  156.7990 N   0  0  0  0  0  0  0  0  0  0  0  0
  103.9580  130.1330  155.5740 O   0  0  0  0  0  0  0  0  0  0  0  0
  103.1800  134.3670  156.8420 C   0  0  0  0  0  0  0  0  0  0  0  0
  104.5550  132.2100  154.7020 N   0  0  0  0  0  0  0  0  0  0  0  0
  104.8750  131.1460  149.3330 O   0  0  0  0  0  0  0  0  0  0  0  0
  104.3580  133.4080  156.7100 C   0  0  0  0  0  0  0  0  0  0  0  0
  105.9010  131.8440  151.2760 N   0  0  0  0  0  0  0  0  0  0  0  0
  107.6400  133.6750  146.3230 O   0  0  0  0  0  0  0  0  0  0  0  0
  104.0980  131.3250  155.7020 C   0  0  0  0  0  0  0  0  0  0  0  0
  105.5500  134.2890  154.7780 O   0  0  0  0  0  0  0  0  0  0  0  0
  104.6200  131.9250  153.2970 C   0  0  0  0  0  0  0  0  0  0  0  0
  103.5090  131.4650  152.6240 C   0  0  0  0  0  0  0  0  0  0  0  0
  103.6040  131.2020  151.2730 C   0  0  0  0  0  0  0  0  0  0  0  0
  104.8220  131.4130  150.6670 C   0  0  0  0  0  0  0  0  0  0  0  0
  106.0520  131.3000  148.5880 C   0  0  0  0  0  0  0  0  0  0  0  0
  106.9950  130.3010  148.6100 C   0  0  0  0  0  0  0  0  0  0  0  0
  108.1490  130.4530  147.8640 C   0  0  0  0  0  0  0  0  0  0  0  0
  108.3690  131.5870  147.0920 C   0  0  0  0  0  0  0  0  0  0  0  0
  109.6120  131.7470  146.2830 C   0  0  0  0  0  0  0  0  0  0  0  0
  107.3790  132.5850  147.0930 C   0  0  0  0  0  0  0  0  0  0  0  0
  106.9420  134.8770  146.6120 C   0  0  0  0  0  0  0  0  0  0  0  0
  106.2230  132.4410  147.8340 C   0  0  0  0  0  0  0  0  0  0  0  0
  105.8010  132.1040  152.5910 C   0  0  0  0  0  0  0  0  0  0  0  0
  104.9110  133.4100  155.2980 C   0  0  0  0  0  0  0  0  0  0  0  0
  1  4  1  0  0  0  0
  2  7  1  0  0  0  0
  4  7  1  0  0  0  0
  2 10  1  0  0  0  0
  3 10  2  0  0  0  0
  5 10  1  0  0  0  0
  5 12  1  0  0  0  0
 12 13  1  0  0  0  0
 13 14  2  0  0  0  0
  6 15  1  0  0  0  0
  8 15  2  0  0  0  0
 14 15  1  0  0  0  0
  6 16  1  0  0  0  0
 16 17  1  0  0  0  0
 17 18  2  0  0  0  0
 18 19  1  0  0  0  0
 19 20  1  0  0  0  0
  9 21  1  0  0  0  0
 19 21  2  0  0  0  0
  9 22  1  0  0  0  0
 16 23  2  0  0  0  0
 21 23  1  0  0  0  0
  8 24  1  0  0  0  0
 12 24  2  0  0  0  0
  5 25  1  0  0  0  0
  7 25  1  0  0  0  0
 11 25  2  0  0  0  0
M  END
$$$$
