6VBI
  PyMOL3.1          3D                             0

 27 31  0  0  0  0  0  0  0  0999 V2000
    5.7543   44.4006  118.9700 C   0  0  0  0  0  0  0  0  0  0  0  0
    6.4224   45.3342  118.1973 C   0  0  0  0  0  0  0  0  0  0  0  0
    7.6910   45.0639  117.7081 C   0  0  0  0  0  0  0  0  0  0  0  0
    8.2841   43.8388  117.9804 C   0  0  0  0  0  0  0  0  0  0  0  0
    7.6110   42.8453  118.6800 C   0  0  0  0  0  0  0  0  0  0  0  0
    6.3443   43.1728  119.2222 C   0  0  0  0  0  0  0  0  0  0  0  0
    9.6361   43.5825  117.6861 N   0  0  0  0  0  0  0  0  0  0  0  0
   10.2684   42.4569  118.0597 C   0  0  0  0  0  0  0  0  0  0  0  0
    9.5999   41.4297  118.6103 N   0  0  0  0  0  0  0  0  0  0  0  0
    8.2411   41.5406  118.9304 C   0  0  0  0  0  0  0  0  0  0  0  0
    7.5981   40.5475  119.2279 O   0  0  0  0  0  0  0  0  0  0  0  0
   11.6857   42.3077  118.0461 C   0  0  0  0  0  0  0  0  0  0  0  0
   12.2441   41.0374  117.7613 C   0  0  0  0  0  0  0  0  0  0  0  0
   11.4520   39.7928  118.0116 C   0  0  0  0  0  0  0  0  0  0  0  0
   10.2560   40.1327  118.9105 C   0  0  0  0  0  0  0  0  0  0  0  0
   12.7744   43.2608  118.2365 N   0  0  0  0  0  0  0  0  0  0  0  0
   13.9550   42.5567  118.0503 C   0  0  0  0  0  0  0  0  0  0  0  0
   13.6865   41.2001  117.7587 C   0  0  0  0  0  0  0  0  0  0  0  0
   15.2760   43.0237  118.1054 C   0  0  0  0  0  0  0  0  0  0  0  0
   16.3214   42.1494  117.8603 C   0  0  0  0  0  0  0  0  0  0  0  0
   16.0758   40.8128  117.5708 C   0  0  0  0  0  0  0  0  0  0  0  0
   14.7761   40.3251  117.5350 C   0  0  0  0  0  0  0  0  0  0  0  0
    5.8192   42.2946  120.1264 O   0  0  0  0  0  0  0  0  0  0  0  0
    4.7343   42.7749  120.9317 C   0  0  0  0  0  0  0  0  0  0  0  0
   10.3135   44.6349  116.9202 C   0  0  0  0  0  0  0  0  0  0  0  0
   14.4595   38.9953  117.4032 O   0  0  0  0  0  0  0  0  0  0  0  0
   15.5195   38.0394  117.4588 C   0  0  0  0  0  0  0  0  0  0  0  0
  1  2  1  0  0  0  0
  2  3  2  0  0  0  0
  3  4  1  0  0  0  0
  4  5  2  0  0  0  0
  1  6  2  0  0  0  0
  5  6  1  0  0  0  0
  4  7  1  0  0  0  0
  7  8  1  0  0  0  0
  8  9  1  0  0  0  0
  5 10  1  0  0  0  0
  9 10  1  0  0  0  0
 10 11  2  0  0  0  0
  8 12  1  0  0  0  0
 12 13  2  0  0  0  0
 13 14  1  0  0  0  0
  9 15  1  0  0  0  0
 14 15  1  0  0  0  0
 12 16  1  0  0  0  0
 16 17  1  0  0  0  0
 13 18  1  0  0  0  0
 17 18  1  0  0  0  0
 17 19  2  0  0  0  0
 19 20  1  0  0  0  0
 20 21  2  0  0  0  0
 18 22  2  0  0  0  0
 21 22  1  0  0  0  0
  6 23  1  0  0  0  0
 23 24  1  0  0  0  0
  7 25  1  0  0  0  0
 22 26  1  0  0  0  0
 26 27  1  0  0  0  0
M  END
$$$$
