6VBI
  PyMOL3.1          3D                             0

 27 31  0  0  0  0  0  0  0  0999 V2000
   11.6732   21.0759  147.2640 C   0  0  0  0  0  0  0  0  0  0  0  0
   10.5597   21.3699  146.4993 C   0  0  0  0  0  0  0  0  0  0  0  0
   10.4734   22.5767  145.8260 C   0  0  0  0  0  0  0  0  0  0  0  0
   11.5312   23.4760  145.8865 C   0  0  0  0  0  0  0  0  0  0  0  0
   12.7019   23.1821  146.5845 C   0  0  0  0  0  0  0  0  0  0  0  0
   12.7185   21.9869  147.3431 C   0  0  0  0  0  0  0  0  0  0  0  0
   11.4312   24.7838  145.3633 N   0  0  0  0  0  0  0  0  0  0  0  0
   12.3821   25.7081  145.5461 C   0  0  0  0  0  0  0  0  0  0  0  0
   13.5792   25.3925  146.0702 N   0  0  0  0  0  0  0  0  0  0  0  0
   13.8388   24.1296  146.6016 C   0  0  0  0  0  0  0  0  0  0  0  0
   14.9866   23.8124  146.8860 O   0  0  0  0  0  0  0  0  0  0  0  0
   12.1579   27.0883  145.3115 C   0  0  0  0  0  0  0  0  0  0  0  0
   13.2323   27.8626  144.8375 C   0  0  0  0  0  0  0  0  0  0  0  0
   14.6330   27.3410  144.8995 C   0  0  0  0  0  0  0  0  0  0  0  0
   14.7218   26.3389  146.0540 C   0  0  0  0  0  0  0  0  0  0  0  0
   10.9794   27.9386  145.4359 N   0  0  0  0  0  0  0  0  0  0  0  0
   11.3734   29.2048  145.0261 C   0  0  0  0  0  0  0  0  0  0  0  0
   12.7373   29.2073  144.6648 C   0  0  0  0  0  0  0  0  0  0  0  0
   10.6183   30.3835  144.9438 C   0  0  0  0  0  0  0  0  0  0  0  0
   11.2262   31.5602  144.5351 C   0  0  0  0  0  0  0  0  0  0  0  0
   12.5688   31.5807  144.1882 C   0  0  0  0  0  0  0  0  0  0  0  0
   13.3201   30.4190  144.2391 C   0  0  0  0  0  0  0  0  0  0  0  0
   13.7022   21.8738  148.2853 O   0  0  0  0  0  0  0  0  0  0  0  0
   13.5986   20.7648  149.1921 C   0  0  0  0  0  0  0  0  0  0  0  0
   10.2524   25.0525  144.5315 C   0  0  0  0  0  0  0  0  0  0  0  0
   14.6470   30.3617  143.9164 O   0  0  0  0  0  0  0  0  0  0  0  0
   15.2928   31.5796  143.5376 C   0  0  0  0  0  0  0  0  0  0  0  0
  1  2  1  0  0  0  0
  2  3  2  0  0  0  0
  3  4  1  0  0  0  0
  4  5  2  0  0  0  0
  1  6  2  0  0  0  0
  5  6  1  0  0  0  0
  4  7  1  0  0  0  0
  7  8  1  0  0  0  0
  8  9  1  0  0  0  0
  5 10  1  0  0  0  0
  9 10  1  0  0  0  0
 10 11  2  0  0  0  0
  8 12  1  0  0  0  0
 12 13  2  0  0  0  0
 13 14  1  0  0  0  0
  9 15  1  0  0  0  0
 14 15  1  0  0  0  0
 12 16  1  0  0  0  0
 16 17  1  0  0  0  0
 13 18  1  0  0  0  0
 17 18  1  0  0  0  0
 17 19  2  0  0  0  0
 19 20  1  0  0  0  0
 20 21  2  0  0  0  0
 18 22  2  0  0  0  0
 21 22  1  0  0  0  0
  6 23  1  0  0  0  0
 23 24  1  0  0  0  0
  7 25  1  0  0  0  0
 22 26  1  0  0  0  0
 26 27  1  0  0  0  0
M  END
$$$$
