8W34
  PyMOL3.1          3D                             0

 30 33  0  0  0  0  0  0  0  0999 V2000
  162.4200  153.4800  116.7220 C   0  0  0  0  0  0  0  0  0  0  0  0
  155.4220  151.7730  127.8320 C   0  0  0  0  0  0  0  0  0  0  0  0
  154.9880  152.1010  126.5640 C   0  0  0  0  0  0  0  0  0  0  0  0
  156.5870  153.8400  127.9820 C   0  0  0  0  0  0  0  0  0  0  0  0
  158.1660  152.7310  121.3940 C   0  0  0  0  0  0  0  0  0  0  0  0
  163.2160  151.4990  119.0850 C   0  0  0  0  0  0  0  0  0  0  0  0
  163.7510  152.8970  118.7090 C   0  0  0  0  0  0  0  0  0  0  0  0
  154.9350  153.6450  124.7430 C   0  0  0  0  0  0  0  0  0  0  0  0
  159.5910  152.0430  119.5510 C   0  0  0  0  0  0  0  0  0  0  0  0
  156.6860  153.1920  123.1450 C   0  0  0  0  0  0  0  0  0  0  0  0
  160.9700  154.4670  119.8640 C   0  0  0  0  0  0  0  0  0  0  0  0
  156.2170  152.6420  128.5300 C   0  0  0  0  0  0  0  0  0  0  0  0
  156.1520  154.1560  126.7190 C   0  0  0  0  0  0  0  0  0  0  0  0
  155.3550  153.3020  126.0070 C   0  0  0  0  0  0  0  0  0  0  0  0
  159.4940  155.0600  121.6830 C   0  0  0  0  0  0  0  0  0  0  0  0
  157.7570  153.6030  122.3740 C   0  0  0  0  0  0  0  0  0  0  0  0
  159.8990  154.1770  120.6910 C   0  0  0  0  0  0  0  0  0  0  0  0
  158.4390  154.7950  122.5240 C   0  0  0  0  0  0  0  0  0  0  0  0
  156.0630  154.0680  123.9170 N   0  0  0  0  0  0  0  0  0  0  0  0
  156.3570  152.0200  123.0900 O   0  0  0  0  0  0  0  0  0  0  0  0
  161.4410  155.5970  119.8700 O   0  0  0  0  0  0  0  0  0  0  0  0
  158.1400  155.6190  123.3690 O   0  0  0  0  0  0  0  0  0  0  0  0
  160.1310  156.2460  121.8700 O   0  0  0  0  0  0  0  0  0  0  0  0
  161.9600  151.5170  119.8390 O   0  0  0  0  0  0  0  0  0  0  0  0
  162.6480  153.7890  118.1970 C   0  0  0  0  0  0  0  0  0  0  0  0
  160.9990  152.1680  119.0320 C   0  0  0  0  0  0  0  0  0  0  0  0
  161.5050  153.5270  119.0710 N   0  0  0  0  0  0  0  0  0  0  0  0
  159.2340  153.0330  120.5650 N   0  0  0  0  0  0  0  0  0  0  0  0
  156.6150  152.3510  129.6790 F   0  0  0  0  0  0  0  0  0  0  0  0
  156.4830  155.2360  126.2170 F   0  0  0  0  0  0  0  0  0  0  0  0
  2  3  2  0  0  0  0
  6  7  1  0  0  0  0
  2 12  1  0  0  0  0
  4 12  2  0  0  0  0
  4 13  1  0  0  0  0
  3 14  1  0  0  0  0
  8 14  1  0  0  0  0
 13 14  2  0  0  0  0
  5 16  2  0  0  0  0
 10 16  1  0  0  0  0
 11 17  1  0  0  0  0
 15 17  2  0  0  0  0
 15 18  1  0  0  0  0
 16 18  1  0  0  0  0
  8 19  1  0  0  0  0
 10 19  1  0  0  0  0
 10 20  2  0  0  0  0
 11 21  2  0  0  0  0
 18 22  2  0  0  0  0
 15 23  1  0  0  0  0
  6 24  1  0  0  0  0
  1 25  1  0  0  0  0
  7 25  1  0  0  0  0
  9 26  1  0  0  0  0
 24 26  1  0  0  0  0
 11 27  1  0  0  0  0
 25 27  1  0  0  0  0
 26 27  1  0  0  0  0
  5 28  1  0  0  0  0
  9 28  1  0  0  0  0
 17 28  1  0  0  0  0
 12 29  1  0  0  0  0
 13 30  1  0  0  0  0
M  END
$$$$
