7XJ0
  PyMOL3.1          3D                             0

 33 35  0  0  0  0  0  0  0  0999 V2000
  144.7120  171.0190  148.6500 S   0  0  0  0  0  0  0  0  0  0  0  0
  144.6460  165.8360  150.5980 O   0  0  0  0  0  0  0  0  0  0  0  0
  143.5870  167.0300  145.8670 O   0  0  0  0  0  0  0  0  0  0  0  0
  145.0620  168.3320  149.2990 O   0  0  0  0  0  0  0  0  0  0  0  0
  146.8930  176.0240  149.7250 N   0  0  0  0  0  0  0  0  0  0  0  0
  142.7370  171.1600  147.3430 N   0  0  0  0  0  0  0  0  0  0  0  0
  143.4650  168.8320  147.7880 N   0  0  0  0  0  0  0  0  0  0  0  0
  148.1850  173.6320  153.2270 N   0  0  0  0  0  0  0  0  0  0  0  0
  144.1820  164.0720  148.9840 N   0  0  0  0  0  0  0  0  0  0  0  0
  143.6360  164.6800  146.5500 N   0  0  0  0  0  0  0  0  0  0  0  0
  148.6900  174.4870  150.7680 C   0  0  0  0  0  0  0  0  0  0  0  0
  147.3680  174.6600  150.0370 C   0  0  0  0  0  0  0  0  0  0  0  0
  145.2490  173.6470  148.9410 C   0  0  0  0  0  0  0  0  0  0  0  0
  146.5470  173.4420  149.6330 C   0  0  0  0  0  0  0  0  0  0  0  0
  149.4030  175.8350  150.8260 C   0  0  0  0  0  0  0  0  0  0  0  0
  149.5510  173.4830  150.0010 C   0  0  0  0  0  0  0  0  0  0  0  0
  144.4180  172.4740  148.4660 C   0  0  0  0  0  0  0  0  0  0  0  0
  144.7930  175.0160  148.6050 C   0  0  0  0  0  0  0  0  0  0  0  0
  143.2320  172.5820  147.6690 C   0  0  0  0  0  0  0  0  0  0  0  0
  148.4050  173.9950  152.1820 C   0  0  0  0  0  0  0  0  0  0  0  0
  145.6140  176.2230  149.0170 C   0  0  0  0  0  0  0  0  0  0  0  0
  143.6050  170.2470  147.9360 C   0  0  0  0  0  0  0  0  0  0  0  0
  142.5280  173.8340  147.2100 C   0  0  0  0  0  0  0  0  0  0  0  0
  144.2840  167.9320  148.5290 C   0  0  0  0  0  0  0  0  0  0  0  0
  144.1190  166.4640  148.2470 C   0  0  0  0  0  0  0  0  0  0  0  0
  144.3320  165.4600  149.3030 C   0  0  0  0  0  0  0  0  0  0  0  0
  143.7760  166.0700  146.8600 C   0  0  0  0  0  0  0  0  0  0  0  0
  143.8330  163.6620  147.6030 C   0  0  0  0  0  0  0  0  0  0  0  0
  144.4150  164.8460  151.5410 C   0  0  0  0  0  0  0  0  0  0  0  0
  143.3580  166.5490  144.5880 C   0  0  0  0  0  0  0  0  0  0  0  0
  143.3620  174.5260  146.4050 F   0  0  0  0  0  0  0  0  0  0  0  0
  142.1890  174.5760  148.2880 F   0  0  0  0  0  0  0  0  0  0  0  0
  141.4140  173.5130  146.5140 F   0  0  0  0  0  0  0  0  0  0  0  0
  9 26  4  0  0  0  0
  9 28  4  0  0  0  0
 11 15  1  0  0  0  0
 11 16  1  0  0  0  0
 11 20  1  0  0  0  0
  5 12  4  0  0  0  0
 11 12  1  0  0  0  0
 12 14  4  0  0  0  0
 13 14  4  0  0  0  0
  1 17  4  0  0  0  0
 13 17  1  0  0  0  0
 17 19  4  0  0  0  0
 13 18  4  0  0  0  0
 18 21  4  0  0  0  0
  6 19  4  0  0  0  0
 19 23  1  0  0  0  0
  8 20  3  0  0  0  0
  5 21  4  0  0  0  0
  1 22  4  0  0  0  0
  6 22  4  0  0  0  0
  7 22  1  0  0  0  0
 23 31  1  0  0  0  0
 23 32  1  0  0  0  0
 23 33  1  0  0  0  0
  4 24  2  0  0  0  0
  7 24  1  0  0  0  0
 24 25  1  0  0  0  0
 25 26  4  0  0  0  0
 25 27  4  0  0  0  0
  2 26  1  0  0  0  0
  3 27  1  0  0  0  0
 10 27  4  0  0  0  0
 10 28  4  0  0  0  0
  2 29  1  0  0  0  0
  3 30  1  0  0  0  0
M  END
$$$$
