7XJ0
  PyMOL3.1          3D                             0

 33 35  0  0  0  0  0  0  0  0999 V2000
  161.8050  144.6990  148.6420 S   0  0  0  0  0  0  0  0  0  0  0  0
  166.9790  144.6510  150.6020 O   0  0  0  0  0  0  0  0  0  0  0  0
  165.7910  143.5930  145.8730 O   0  0  0  0  0  0  0  0  0  0  0  0
  164.4870  145.0460  149.3090 O   0  0  0  0  0  0  0  0  0  0  0  0
  156.7850  146.8610  149.7120 N   0  0  0  0  0  0  0  0  0  0  0  0
  161.6730  142.7180  147.3370 N   0  0  0  0  0  0  0  0  0  0  0  0
  163.9960  143.4590  147.7830 N   0  0  0  0  0  0  0  0  0  0  0  0
  159.1430  148.2000  153.2040 N   0  0  0  0  0  0  0  0  0  0  0  0
  168.7490  144.2110  148.9860 N   0  0  0  0  0  0  0  0  0  0  0  0
  168.1450  143.6660  146.5510 N   0  0  0  0  0  0  0  0  0  0  0  0
  158.3140  148.6800  150.7310 C   0  0  0  0  0  0  0  0  0  0  0  0
  158.1480  147.3490  150.0120 C   0  0  0  0  0  0  0  0  0  0  0  0
  159.1730  145.2280  148.9300 C   0  0  0  0  0  0  0  0  0  0  0  0
  159.3700  146.5340  149.6090 C   0  0  0  0  0  0  0  0  0  0  0  0
  156.9650  149.3930  150.7710 C   0  0  0  0  0  0  0  0  0  0  0  0
  159.3240  149.5350  149.9670 C   0  0  0  0  0  0  0  0  0  0  0  0
  160.3510  144.4000  148.4570 C   0  0  0  0  0  0  0  0  0  0  0  0
  157.8060  144.7580  148.6060 C   0  0  0  0  0  0  0  0  0  0  0  0
  160.2490  143.2130  147.6620 C   0  0  0  0  0  0  0  0  0  0  0  0
  158.7910  148.4090  152.1530 C   0  0  0  0  0  0  0  0  0  0  0  0
  156.5940  145.5740  149.0160 C   0  0  0  0  0  0  0  0  0  0  0  0
  162.5810  143.5920  147.9300 C   0  0  0  0  0  0  0  0  0  0  0  0
  158.9970  142.5070  147.2040 C   0  0  0  0  0  0  0  0  0  0  0  0
  164.8910  144.2750  148.5330 C   0  0  0  0  0  0  0  0  0  0  0  0
  166.3590  144.1230  148.2510 C   0  0  0  0  0  0  0  0  0  0  0  0
  167.3600  144.3450  149.3070 C   0  0  0  0  0  0  0  0  0  0  0  0
  166.7540  143.7890  146.8630 C   0  0  0  0  0  0  0  0  0  0  0  0
  169.1630  143.8740  147.6030 C   0  0  0  0  0  0  0  0  0  0  0  0
  167.9690  144.4240  151.5470 C   0  0  0  0  0  0  0  0  0  0  0  0
  166.2640  143.3600  144.5920 C   0  0  0  0  0  0  0  0  0  0  0  0
  158.3010  143.3430  146.4060 F   0  0  0  0  0  0  0  0  0  0  0  0
  158.2600  142.1580  148.2820 F   0  0  0  0  0  0  0  0  0  0  0  0
  159.3170  141.3990  146.4990 F   0  0  0  0  0  0  0  0  0  0  0  0
  9 26  4  0  0  0  0
  9 28  4  0  0  0  0
 11 15  1  0  0  0  0
 11 16  1  0  0  0  0
 11 20  1  0  0  0  0
  5 12  4  0  0  0  0
 11 12  1  0  0  0  0
 12 14  4  0  0  0  0
 13 14  4  0  0  0  0
  1 17  4  0  0  0  0
 13 17  1  0  0  0  0
 17 19  4  0  0  0  0
 13 18  4  0  0  0  0
 18 21  4  0  0  0  0
  6 19  4  0  0  0  0
 19 23  1  0  0  0  0
  8 20  3  0  0  0  0
  5 21  4  0  0  0  0
  1 22  4  0  0  0  0
  6 22  4  0  0  0  0
  7 22  1  0  0  0  0
 23 31  1  0  0  0  0
 23 32  1  0  0  0  0
 23 33  1  0  0  0  0
  4 24  2  0  0  0  0
  7 24  1  0  0  0  0
 24 25  1  0  0  0  0
 25 26  4  0  0  0  0
 25 27  4  0  0  0  0
  2 26  1  0  0  0  0
  3 27  1  0  0  0  0
 10 27  4  0  0  0  0
 10 28  4  0  0  0  0
  2 29  1  0  0  0  0
  3 30  1  0  0  0  0
M  END
$$$$
