7E33
  PyMOL3.1          3D                             0

 17 19  0  0  0  0  0  0  0  0999 V2000
   92.1830  119.6440  114.7860 C   0  0  0  0  0  0  0  0  0  0  0  0
   91.0420  118.9350  115.5360 C   0  0  0  0  0  0  0  0  0  0  0  0
   92.6590  120.8690  115.6080 C   0  0  0  0  0  0  0  0  0  0  0  0
   92.9810  120.3410  117.0000 C   0  0  0  0  0  0  0  0  0  0  0  0
   93.8700  121.5550  114.9600 C   0  0  0  0  0  0  0  0  0  0  0  0
   94.7160  120.9660  114.0770 C   0  0  0  0  0  0  0  0  0  0  0  0
   94.2600  122.9900  115.2250 C   0  0  0  0  0  0  0  0  0  0  0  0
   95.4660  123.1410  114.3640 C   0  0  0  0  0  0  0  0  0  0  0  0
   93.8320  124.0840  115.9840 C   0  0  0  0  0  0  0  0  0  0  0  0
   95.5640  121.8840  113.7920 N   0  0  0  0  0  0  0  0  0  0  0  0
   96.1670  124.3350  114.2990 C   0  0  0  0  0  0  0  0  0  0  0  0
   94.5730  125.3090  115.9010 C   0  0  0  0  0  0  0  0  0  0  0  0
   91.3740  118.5700  116.7580 N   0  0  0  0  0  0  0  0  0  0  0  0
   95.7260  125.4230  115.0670 C   0  0  0  0  0  0  0  0  0  0  0  0
   94.1530  126.4250  116.6640 O   0  0  0  0  0  0  0  0  0  0  0  0
   90.3780  117.9310  117.3190 C   0  0  0  0  0  0  0  0  0  0  0  0
   91.7300  119.6070  117.5310 C   0  0  0  0  0  0  0  0  0  0  0  0
  1  2  1  0  0  0  0
  1  3  1  0  0  0  0
  2 13  1  0  0  0  0
  3  4  1  0  0  0  0
  3  5  1  0  0  0  0
  4 17  1  0  0  0  0
  5  6  4  0  0  0  0
  5  7  4  0  0  0  0
  6 10  4  0  0  0  0
  7  8  4  0  0  0  0
  7  9  4  0  0  0  0
  8 10  4  0  0  0  0
  8 11  4  0  0  0  0
  9 12  4  0  0  0  0
 11 14  4  0  0  0  0
 12 14  4  0  0  0  0
 12 15  1  0  0  0  0
 13 16  1  0  0  0  0
 13 17  1  0  0  0  0
M  END
$$$$
