8X43
  PyMOL3.1          3D                             0

 38 41  0  0  0  0  0  0  0  0999 V2000
  105.9200  127.1280   98.3450 C   0  0  0  0  0  0  0  0  0  0  0  0
  105.1090  123.0410   99.3570 N   0  0  0  0  0  0  0  0  0  0  0  0
  105.9430  122.5090  101.4060 O   0  0  0  0  0  0  0  0  0  0  0  0
  105.6350  125.8040   98.6780 C   0  0  0  0  0  0  0  0  0  0  0  0
  107.2440  121.1460   99.0750 N   0  0  0  0  0  0  0  0  0  0  0  0
  106.5950  124.8070   98.5810 C   0  0  0  0  0  0  0  0  0  0  0  0
  107.8300  125.1820   98.1450 C   0  0  0  0  0  0  0  0  0  0  0  0
  108.1350  126.4930   97.8050 C   0  0  0  0  0  0  0  0  0  0  0  0
  107.1890  127.4790   97.9030 C   0  0  0  0  0  0  0  0  0  0  0  0
  106.4040  123.4560   98.8860 C   0  0  0  0  0  0  0  0  0  0  0  0
  107.4590  122.5390   98.7510 C   0  0  0  0  0  0  0  0  0  0  0  0
  108.6920  122.9730   98.3040 C   0  0  0  0  0  0  0  0  0  0  0  0
  108.8720  124.2840   98.0040 C   0  0  0  0  0  0  0  0  0  0  0  0
  109.5810  126.4930   97.3790 C   0  0  0  0  0  0  0  0  0  0  0  0
  110.0510  125.0880   97.5040 C   0  0  0  0  0  0  0  0  0  0  0  0
  104.9910  122.5610  100.7120 C   0  0  0  0  0  0  0  0  0  0  0  0
  103.6380  122.1430  101.2480 C   0  0  0  0  0  0  0  0  0  0  0  0
  102.6270  123.0780  101.2630 C   0  0  0  0  0  0  0  0  0  0  0  0
  101.3840  122.7380  101.7470 C   0  0  0  0  0  0  0  0  0  0  0  0
  101.1630  121.4620  102.2160 C   0  0  0  0  0  0  0  0  0  0  0  0
  102.1760  120.5240  102.2030 C   0  0  0  0  0  0  0  0  0  0  0  0
  103.4210  120.8670  101.7180 C   0  0  0  0  0  0  0  0  0  0  0  0
   99.9350  121.1340  102.6940 F   0  0  0  0  0  0  0  0  0  0  0  0
  105.2600  127.7780   98.4180 H   0  0  0  0  0  0  0  0  0  0  0  0
  104.7800  125.5830   98.9730 H   0  0  0  0  0  0  0  0  0  0  0  0
  107.3910  128.3580   97.6770 H   0  0  0  0  0  0  0  0  0  0  0  0
  109.3940  122.3700   98.2090 H   0  0  0  0  0  0  0  0  0  0  0  0
  109.6600  126.8020   96.4640 H   0  0  0  0  0  0  0  0  0  0  0  0
  110.0950  127.0660   97.9690 H   0  0  0  0  0  0  0  0  0  0  0  0
  110.7800  125.0380   98.1430 H   0  0  0  0  0  0  0  0  0  0  0  0
  110.3370  124.7570   96.6400 H   0  0  0  0  0  0  0  0  0  0  0  0
  104.4190  123.0920   98.8460 H   0  0  0  0  0  0  0  0  0  0  0  0
  102.7840  123.9380  100.9450 H   0  0  0  0  0  0  0  0  0  0  0  0
  100.6980  123.3670  101.7570 H   0  0  0  0  0  0  0  0  0  0  0  0
  102.0200  119.6640  102.5220 H   0  0  0  0  0  0  0  0  0  0  0  0
  104.1090  120.2420  101.7070 H   0  0  0  0  0  0  0  0  0  0  0  0
  107.9090  120.6490   99.2980 H   0  0  0  0  0  0  0  0  0  0  0  0
  106.4500  120.8160   99.0440 H   0  0  0  0  0  0  0  0  0  0  0  0
  1  4  2  0  0  0  0
  4  6  1  0  0  0  0
  6  7  1  0  0  0  0
  7  8  1  0  0  0  0
  1  9  1  0  0  0  0
  8  9  2  0  0  0  0
  2 10  1  0  0  0  0
  6 10  2  0  0  0  0
  5 11  1  0  0  0  0
 10 11  1  0  0  0  0
 11 12  2  0  0  0  0
  7 13  2  0  0  0  0
 12 13  1  0  0  0  0
  8 14  1  0  0  0  0
 13 15  1  0  0  0  0
 14 15  1  0  0  0  0
  2 16  1  0  0  0  0
  3 16  2  0  0  0  0
 16 17  1  0  0  0  0
 17 18  2  0  0  0  0
 18 19  1  0  0  0  0
 19 20  2  0  0  0  0
 20 21  1  0  0  0  0
 17 22  1  0  0  0  0
 21 22  2  0  0  0  0
 20 23  1  0  0  0  0
  1 24  1  0  0  0  0
  4 25  1  0  0  0  0
  9 26  1  0  0  0  0
 12 27  1  0  0  0  0
 14 28  1  0  0  0  0
 14 29  1  0  0  0  0
 15 30  1  0  0  0  0
 15 31  1  0  0  0  0
  2 32  1  0  0  0  0
 18 33  1  0  0  0  0
 19 34  1  0  0  0  0
 21 35  1  0  0  0  0
 22 36  1  0  0  0  0
  5 37  1  0  0  0  0
  5 38  1  0  0  0  0
M  END
$$$$
