8X43
  PyMOL3.1          3D                             0

152164  0  0  0  0  0  0  0  0999 V2000
   96.0720  105.9150   98.3490 C   0  0  0  0  0  0  0  0  0  0  0  0
  100.1600  105.1050   99.3550 N   0  0  0  0  0  0  0  0  0  0  0  0
  100.6910  105.9380  101.4030 O   0  0  0  0  0  0  0  0  0  0  0  0
   97.3970  105.6300   98.6820 C   0  0  0  0  0  0  0  0  0  0  0  0
  102.0570  107.2390   99.0700 N   0  0  0  0  0  0  0  0  0  0  0  0
   98.3930  106.5910   98.5820 C   0  0  0  0  0  0  0  0  0  0  0  0
   98.0190  107.8250   98.1470 C   0  0  0  0  0  0  0  0  0  0  0  0
   96.7080  108.1320   97.8090 C   0  0  0  0  0  0  0  0  0  0  0  0
   95.7210  107.1850   97.9080 C   0  0  0  0  0  0  0  0  0  0  0  0
   99.7450  106.4010   98.8850 C   0  0  0  0  0  0  0  0  0  0  0  0
  100.6630  107.4540   98.7490 C   0  0  0  0  0  0  0  0  0  0  0  0
  100.2270  108.6890   98.3030 C   0  0  0  0  0  0  0  0  0  0  0  0
   98.9160  108.8670   98.0050 C   0  0  0  0  0  0  0  0  0  0  0  0
   96.7060  109.5770   97.3850 C   0  0  0  0  0  0  0  0  0  0  0  0
   98.1110  110.0470   97.5060 C   0  0  0  0  0  0  0  0  0  0  0  0
  100.6410  104.9860  100.7090 C   0  0  0  0  0  0  0  0  0  0  0  0
  101.0590  103.6330  101.2450 C   0  0  0  0  0  0  0  0  0  0  0  0
  100.1250  102.6220  101.2580 C   0  0  0  0  0  0  0  0  0  0  0  0
  100.4660  101.3780  101.7420 C   0  0  0  0  0  0  0  0  0  0  0  0
  101.7410  101.1590  102.2130 C   0  0  0  0  0  0  0  0  0  0  0  0
  102.6780  102.1730  102.2020 C   0  0  0  0  0  0  0  0  0  0  0  0
  102.3340  103.4180  101.7170 C   0  0  0  0  0  0  0  0  0  0  0  0
  102.0710   99.9300  102.6910 F   0  0  0  0  0  0  0  0  0  0  0  0
   95.4230  105.2550   98.4250 H   0  0  0  0  0  0  0  0  0  0  0  0
   97.6180  104.7760   98.9750 H   0  0  0  0  0  0  0  0  0  0  0  0
   94.8420  107.3870   97.6860 H   0  0  0  0  0  0  0  0  0  0  0  0
  100.8300  109.3900   98.2060 H   0  0  0  0  0  0  0  0  0  0  0  0
   96.3960  109.6560   96.4690 H   0  0  0  0  0  0  0  0  0  0  0  0
   96.1350  110.0910   97.9760 H   0  0  0  0  0  0  0  0  0  0  0  0
   98.1630  110.7750   98.1450 H   0  0  0  0  0  0  0  0  0  0  0  0
   98.4410  110.3320   96.6410 H   0  0  0  0  0  0  0  0  0  0  0  0
  100.1080  104.4150   98.8430 H   0  0  0  0  0  0  0  0  0  0  0  0
   99.2660  102.7770  100.9390 H   0  0  0  0  0  0  0  0  0  0  0  0
   99.8380  100.6910  101.7520 H   0  0  0  0  0  0  0  0  0  0  0  0
  103.5370  102.0180  102.5220 H   0  0  0  0  0  0  0  0  0  0  0  0
  102.9590  104.1060  101.7070 H   0  0  0  0  0  0  0  0  0  0  0  0
  102.5550  107.9030   99.2920 H   0  0  0  0  0  0  0  0  0  0  0  0
  102.3860  106.4450   99.0370 H   0  0  0  0  0  0  0  0  0  0  0  0
  117.2880   96.0690   98.3510 C   0  0  0  0  0  0  0  0  0  0  0  0
  118.0990  100.1580   99.3510 N   0  0  0  0  0  0  0  0  0  0  0  0
  117.2680  100.6760  101.4030 O   0  0  0  0  0  0  0  0  0  0  0  0
  117.5740   97.3940   98.6810 C   0  0  0  0  0  0  0  0  0  0  0  0
  115.9640  102.0530   99.0650 N   0  0  0  0  0  0  0  0  0  0  0  0
  116.6120   98.3900   98.5820 C   0  0  0  0  0  0  0  0  0  0  0  0
  115.3780   98.0150   98.1480 C   0  0  0  0  0  0  0  0  0  0  0  0
  115.0730   96.7030   97.8120 C   0  0  0  0  0  0  0  0  0  0  0  0
  116.0190   95.7180   97.9120 C   0  0  0  0  0  0  0  0  0  0  0  0
  116.8030   99.7420   98.8820 C   0  0  0  0  0  0  0  0  0  0  0  0
  115.7500  100.6590   98.7460 C   0  0  0  0  0  0  0  0  0  0  0  0
  114.5150  100.2230   98.3020 C   0  0  0  0  0  0  0  0  0  0  0  0
  114.3350   98.9130   98.0050 C   0  0  0  0  0  0  0  0  0  0  0  0
  113.6260   96.7000   97.3880 C   0  0  0  0  0  0  0  0  0  0  0  0
  113.1560   98.1050   97.5100 C   0  0  0  0  0  0  0  0  0  0  0  0
  118.2190  100.6330  100.7080 C   0  0  0  0  0  0  0  0  0  0  0  0
  119.5730  101.0510  101.2420 C   0  0  0  0  0  0  0  0  0  0  0  0
  120.5860  100.1180  101.2530 C   0  0  0  0  0  0  0  0  0  0  0  0
  121.8280  100.4600  101.7370 C   0  0  0  0  0  0  0  0  0  0  0  0
  122.0460  101.7350  102.2100 C   0  0  0  0  0  0  0  0  0  0  0  0
  121.0310  102.6700  102.2020 C   0  0  0  0  0  0  0  0  0  0  0  0
  119.7860  102.3250  101.7170 C   0  0  0  0  0  0  0  0  0  0  0  0
  123.2750  102.0660  102.6880 F   0  0  0  0  0  0  0  0  0  0  0  0
  117.9500   95.4200   98.4270 H   0  0  0  0  0  0  0  0  0  0  0  0
  118.4290   97.6160   98.9740 H   0  0  0  0  0  0  0  0  0  0  0  0
  115.8180   94.8370   97.6900 H   0  0  0  0  0  0  0  0  0  0  0  0
  113.8130  100.8270   98.2050 H   0  0  0  0  0  0  0  0  0  0  0  0
  113.5470   96.3900   96.4730 H   0  0  0  0  0  0  0  0  0  0  0  0
  113.1120   96.1300   97.9810 H   0  0  0  0  0  0  0  0  0  0  0  0
  112.4280   98.1590   98.1490 H   0  0  0  0  0  0  0  0  0  0  0  0
  112.8700   98.4350   96.6440 H   0  0  0  0  0  0  0  0  0  0  0  0
  118.7890  100.1110   98.8380 H   0  0  0  0  0  0  0  0  0  0  0  0
  120.4300   99.2600  100.9330 H   0  0  0  0  0  0  0  0  0  0  0  0
  122.5170   99.8340  101.7440 H   0  0  0  0  0  0  0  0  0  0  0  0
  121.1850  103.5290  102.5230 H   0  0  0  0  0  0  0  0  0  0  0  0
  119.0970  102.9490  101.7090 H   0  0  0  0  0  0  0  0  0  0  0  0
  115.3010  102.5520   99.2880 H   0  0  0  0  0  0  0  0  0  0  0  0
  116.7580  102.3830   99.0300 H   0  0  0  0  0  0  0  0  0  0  0  0
  127.1310  117.2850   98.3450 C   0  0  0  0  0  0  0  0  0  0  0  0
  123.0440  118.0950   99.3500 N   0  0  0  0  0  0  0  0  0  0  0  0
  122.5250  117.2630  101.4020 O   0  0  0  0  0  0  0  0  0  0  0  0
  125.8070  117.5700   98.6770 C   0  0  0  0  0  0  0  0  0  0  0  0
  121.1490  115.9610   99.0680 N   0  0  0  0  0  0  0  0  0  0  0  0
  124.8120  116.6090   98.5790 C   0  0  0  0  0  0  0  0  0  0  0  0
  125.1860  115.3740   98.1440 C   0  0  0  0  0  0  0  0  0  0  0  0
  126.4970  115.0680   97.8050 C   0  0  0  0  0  0  0  0  0  0  0  0
  127.4830  116.0150   97.9040 C   0  0  0  0  0  0  0  0  0  0  0  0
  123.4590  116.7990   98.8810 C   0  0  0  0  0  0  0  0  0  0  0  0
  122.5420  115.7450   98.7480 C   0  0  0  0  0  0  0  0  0  0  0  0
  122.9770  114.5110   98.3010 C   0  0  0  0  0  0  0  0  0  0  0  0
  124.2880  114.3320   98.0030 C   0  0  0  0  0  0  0  0  0  0  0  0
  126.4990  113.6230   97.3820 C   0  0  0  0  0  0  0  0  0  0  0  0
  125.0940  113.1520   97.5050 C   0  0  0  0  0  0  0  0  0  0  0  0
  122.5700  118.2150  100.7070 C   0  0  0  0  0  0  0  0  0  0  0  0
  122.1520  119.5680  101.2440 C   0  0  0  0  0  0  0  0  0  0  0  0
  123.0860  120.5800  101.2570 C   0  0  0  0  0  0  0  0  0  0  0  0
  122.7450  121.8220  101.7410 C   0  0  0  0  0  0  0  0  0  0  0  0
  121.4690  122.0410  102.2120 C   0  0  0  0  0  0  0  0  0  0  0  0
  120.5330  121.0270  102.2020 C   0  0  0  0  0  0  0  0  0  0  0  0
  120.8770  119.7820  101.7160 C   0  0  0  0  0  0  0  0  0  0  0  0
  121.1390  123.2690  102.6910 F   0  0  0  0  0  0  0  0  0  0  0  0
  127.7810  117.9460   98.4190 H   0  0  0  0  0  0  0  0  0  0  0  0
  125.5860  118.4250   98.9690 H   0  0  0  0  0  0  0  0  0  0  0  0
  128.3630  115.8140   97.6800 H   0  0  0  0  0  0  0  0  0  0  0  0
  122.3750  113.8090   98.2060 H   0  0  0  0  0  0  0  0  0  0  0  0
  126.8090  113.5420   96.4670 H   0  0  0  0  0  0  0  0  0  0  0  0
  127.0710  113.1090   97.9740 H   0  0  0  0  0  0  0  0  0  0  0  0
  125.0420  112.4250   98.1450 H   0  0  0  0  0  0  0  0  0  0  0  0
  124.7630  112.8650   96.6400 H   0  0  0  0  0  0  0  0  0  0  0  0
  123.0930  118.7840   98.8390 H   0  0  0  0  0  0  0  0  0  0  0  0
  123.9450  120.4250  100.9370 H   0  0  0  0  0  0  0  0  0  0  0  0
  123.3720  122.5100  101.7510 H   0  0  0  0  0  0  0  0  0  0  0  0
  119.6740  121.1810  102.5220 H   0  0  0  0  0  0  0  0  0  0  0  0
  120.2530  119.0940  101.7060 H   0  0  0  0  0  0  0  0  0  0  0  0
  120.6510  115.2960   99.2920 H   0  0  0  0  0  0  0  0  0  0  0  0
  120.8190  116.7530   99.0340 H   0  0  0  0  0  0  0  0  0  0  0  0
  105.9200  127.1280   98.3450 C   0  0  0  0  0  0  0  0  0  0  0  0
  105.1090  123.0410   99.3570 N   0  0  0  0  0  0  0  0  0  0  0  0
  105.9430  122.5090  101.4060 O   0  0  0  0  0  0  0  0  0  0  0  0
  105.6350  125.8040   98.6780 C   0  0  0  0  0  0  0  0  0  0  0  0
  107.2440  121.1460   99.0750 N   0  0  0  0  0  0  0  0  0  0  0  0
  106.5950  124.8070   98.5810 C   0  0  0  0  0  0  0  0  0  0  0  0
  107.8300  125.1820   98.1450 C   0  0  0  0  0  0  0  0  0  0  0  0
  108.1350  126.4930   97.8050 C   0  0  0  0  0  0  0  0  0  0  0  0
  107.1890  127.4790   97.9030 C   0  0  0  0  0  0  0  0  0  0  0  0
  106.4040  123.4560   98.8860 C   0  0  0  0  0  0  0  0  0  0  0  0
  107.4590  122.5390   98.7510 C   0  0  0  0  0  0  0  0  0  0  0  0
  108.6920  122.9730   98.3040 C   0  0  0  0  0  0  0  0  0  0  0  0
  108.8720  124.2840   98.0040 C   0  0  0  0  0  0  0  0  0  0  0  0
  109.5810  126.4930   97.3790 C   0  0  0  0  0  0  0  0  0  0  0  0
  110.0510  125.0880   97.5040 C   0  0  0  0  0  0  0  0  0  0  0  0
  104.9910  122.5610  100.7120 C   0  0  0  0  0  0  0  0  0  0  0  0
  103.6380  122.1430  101.2480 C   0  0  0  0  0  0  0  0  0  0  0  0
  102.6270  123.0780  101.2630 C   0  0  0  0  0  0  0  0  0  0  0  0
  101.3840  122.7380  101.7470 C   0  0  0  0  0  0  0  0  0  0  0  0
  101.1630  121.4620  102.2160 C   0  0  0  0  0  0  0  0  0  0  0  0
  102.1760  120.5240  102.2030 C   0  0  0  0  0  0  0  0  0  0  0  0
  103.4210  120.8670  101.7180 C   0  0  0  0  0  0  0  0  0  0  0  0
   99.9350  121.1340  102.6940 F   0  0  0  0  0  0  0  0  0  0  0  0
  105.2600  127.7780   98.4180 H   0  0  0  0  0  0  0  0  0  0  0  0
  104.7800  125.5830   98.9730 H   0  0  0  0  0  0  0  0  0  0  0  0
  107.3910  128.3580   97.6770 H   0  0  0  0  0  0  0  0  0  0  0  0
  109.3940  122.3700   98.2090 H   0  0  0  0  0  0  0  0  0  0  0  0
  109.6600  126.8020   96.4640 H   0  0  0  0  0  0  0  0  0  0  0  0
  110.0950  127.0660   97.9690 H   0  0  0  0  0  0  0  0  0  0  0  0
  110.7800  125.0380   98.1430 H   0  0  0  0  0  0  0  0  0  0  0  0
  110.3370  124.7570   96.6400 H   0  0  0  0  0  0  0  0  0  0  0  0
  104.4190  123.0920   98.8460 H   0  0  0  0  0  0  0  0  0  0  0  0
  102.7840  123.9380  100.9450 H   0  0  0  0  0  0  0  0  0  0  0  0
  100.6980  123.3670  101.7570 H   0  0  0  0  0  0  0  0  0  0  0  0
  102.0200  119.6640  102.5220 H   0  0  0  0  0  0  0  0  0  0  0  0
  104.1090  120.2420  101.7070 H   0  0  0  0  0  0  0  0  0  0  0  0
  107.9090  120.6490   99.2980 H   0  0  0  0  0  0  0  0  0  0  0  0
  106.4500  120.8160   99.0440 H   0  0  0  0  0  0  0  0  0  0  0  0
  1  4  2  0  0  0  0
  4  6  1  0  0  0  0
  6  7  1  0  0  0  0
  7  8  1  0  0  0  0
  1  9  1  0  0  0  0
  8  9  2  0  0  0  0
  2 10  1  0  0  0  0
  6 10  2  0  0  0  0
  5 11  1  0  0  0  0
 10 11  1  0  0  0  0
 11 12  2  0  0  0  0
  7 13  2  0  0  0  0
 12 13  1  0  0  0  0
  8 14  1  0  0  0  0
 13 15  1  0  0  0  0
 14 15  1  0  0  0  0
  2 16  1  0  0  0  0
  3 16  2  0  0  0  0
 16 17  1  0  0  0  0
 17 18  2  0  0  0  0
 18 19  1  0  0  0  0
 19 20  2  0  0  0  0
 20 21  1  0  0  0  0
 17 22  1  0  0  0  0
 21 22  2  0  0  0  0
 20 23  1  0  0  0  0
  1 24  1  0  0  0  0
  4 25  1  0  0  0  0
  9 26  1  0  0  0  0
 12 27  1  0  0  0  0
 14 28  1  0  0  0  0
 14 29  1  0  0  0  0
 15 30  1  0  0  0  0
 15 31  1  0  0  0  0
  2 32  1  0  0  0  0
 18 33  1  0  0  0  0
 19 34  1  0  0  0  0
 21 35  1  0  0  0  0
 22 36  1  0  0  0  0
  5 37  1  0  0  0  0
  5 38  1  0  0  0  0
 39 42  2  0  0  0  0
 42 44  1  0  0  0  0
 44 45  1  0  0  0  0
 45 46  1  0  0  0  0
 39 47  1  0  0  0  0
 46 47  2  0  0  0  0
 40 48  1  0  0  0  0
 44 48  2  0  0  0  0
 43 49  1  0  0  0  0
 48 49  1  0  0  0  0
 49 50  2  0  0  0  0
 45 51  2  0  0  0  0
 50 51  1  0  0  0  0
 46 52  1  0  0  0  0
 51 53  1  0  0  0  0
 52 53  1  0  0  0  0
 40 54  1  0  0  0  0
 41 54  2  0  0  0  0
 54 55  1  0  0  0  0
 55 56  2  0  0  0  0
 56 57  1  0  0  0  0
 57 58  2  0  0  0  0
 58 59  1  0  0  0  0
 55 60  1  0  0  0  0
 59 60  2  0  0  0  0
 58 61  1  0  0  0  0
 39 62  1  0  0  0  0
 42 63  1  0  0  0  0
 47 64  1  0  0  0  0
 50 65  1  0  0  0  0
 52 66  1  0  0  0  0
 52 67  1  0  0  0  0
 53 68  1  0  0  0  0
 53 69  1  0  0  0  0
 40 70  1  0  0  0  0
 56 71  1  0  0  0  0
 57 72  1  0  0  0  0
 59 73  1  0  0  0  0
 60 74  1  0  0  0  0
 43 75  1  0  0  0  0
 43 76  1  0  0  0  0
 77 80  2  0  0  0  0
 80 82  1  0  0  0  0
 82 83  1  0  0  0  0
 83 84  1  0  0  0  0
 77 85  1  0  0  0  0
 84 85  2  0  0  0  0
 78 86  1  0  0  0  0
 82 86  2  0  0  0  0
 81 87  1  0  0  0  0
 86 87  1  0  0  0  0
 87 88  2  0  0  0  0
 83 89  2  0  0  0  0
 88 89  1  0  0  0  0
 84 90  1  0  0  0  0
 89 91  1  0  0  0  0
 90 91  1  0  0  0  0
 78 92  1  0  0  0  0
 79 92  2  0  0  0  0
 92 93  1  0  0  0  0
 93 94  2  0  0  0  0
 94 95  1  0  0  0  0
 95 96  2  0  0  0  0
 96 97  1  0  0  0  0
 93 98  1  0  0  0  0
 97 98  2  0  0  0  0
 96 99  1  0  0  0  0
 77100  1  0  0  0  0
 80101  1  0  0  0  0
 85102  1  0  0  0  0
 88103  1  0  0  0  0
 90104  1  0  0  0  0
 90105  1  0  0  0  0
 91106  1  0  0  0  0
 91107  1  0  0  0  0
 78108  1  0  0  0  0
 94109  1  0  0  0  0
 95110  1  0  0  0  0
 97111  1  0  0  0  0
 98112  1  0  0  0  0
 81113  1  0  0  0  0
 81114  1  0  0  0  0
115118  2  0  0  0  0
118120  1  0  0  0  0
120121  1  0  0  0  0
121122  1  0  0  0  0
115123  1  0  0  0  0
122123  2  0  0  0  0
116124  1  0  0  0  0
120124  2  0  0  0  0
119125  1  0  0  0  0
124125  1  0  0  0  0
125126  2  0  0  0  0
121127  2  0  0  0  0
126127  1  0  0  0  0
122128  1  0  0  0  0
127129  1  0  0  0  0
128129  1  0  0  0  0
116130  1  0  0  0  0
117130  2  0  0  0  0
130131  1  0  0  0  0
131132  2  0  0  0  0
132133  1  0  0  0  0
133134  2  0  0  0  0
134135  1  0  0  0  0
131136  1  0  0  0  0
135136  2  0  0  0  0
134137  1  0  0  0  0
115138  1  0  0  0  0
118139  1  0  0  0  0
123140  1  0  0  0  0
126141  1  0  0  0  0
128142  1  0  0  0  0
128143  1  0  0  0  0
129144  1  0  0  0  0
129145  1  0  0  0  0
116146  1  0  0  0  0
132147  1  0  0  0  0
133148  1  0  0  0  0
135149  1  0  0  0  0
136150  1  0  0  0  0
119151  1  0  0  0  0
119152  1  0  0  0  0
M  END
$$$$
