8X43
  PyMOL3.1          3D                             0

 38 41  0  0  0  0  0  0  0  0999 V2000
   96.0720  105.9150   98.3490 C   0  0  0  0  0  0  0  0  0  0  0  0
  100.1600  105.1050   99.3550 N   0  0  0  0  0  0  0  0  0  0  0  0
  100.6910  105.9380  101.4030 O   0  0  0  0  0  0  0  0  0  0  0  0
   97.3970  105.6300   98.6820 C   0  0  0  0  0  0  0  0  0  0  0  0
  102.0570  107.2390   99.0700 N   0  0  0  0  0  0  0  0  0  0  0  0
   98.3930  106.5910   98.5820 C   0  0  0  0  0  0  0  0  0  0  0  0
   98.0190  107.8250   98.1470 C   0  0  0  0  0  0  0  0  0  0  0  0
   96.7080  108.1320   97.8090 C   0  0  0  0  0  0  0  0  0  0  0  0
   95.7210  107.1850   97.9080 C   0  0  0  0  0  0  0  0  0  0  0  0
   99.7450  106.4010   98.8850 C   0  0  0  0  0  0  0  0  0  0  0  0
  100.6630  107.4540   98.7490 C   0  0  0  0  0  0  0  0  0  0  0  0
  100.2270  108.6890   98.3030 C   0  0  0  0  0  0  0  0  0  0  0  0
   98.9160  108.8670   98.0050 C   0  0  0  0  0  0  0  0  0  0  0  0
   96.7060  109.5770   97.3850 C   0  0  0  0  0  0  0  0  0  0  0  0
   98.1110  110.0470   97.5060 C   0  0  0  0  0  0  0  0  0  0  0  0
  100.6410  104.9860  100.7090 C   0  0  0  0  0  0  0  0  0  0  0  0
  101.0590  103.6330  101.2450 C   0  0  0  0  0  0  0  0  0  0  0  0
  100.1250  102.6220  101.2580 C   0  0  0  0  0  0  0  0  0  0  0  0
  100.4660  101.3780  101.7420 C   0  0  0  0  0  0  0  0  0  0  0  0
  101.7410  101.1590  102.2130 C   0  0  0  0  0  0  0  0  0  0  0  0
  102.6780  102.1730  102.2020 C   0  0  0  0  0  0  0  0  0  0  0  0
  102.3340  103.4180  101.7170 C   0  0  0  0  0  0  0  0  0  0  0  0
  102.0710   99.9300  102.6910 F   0  0  0  0  0  0  0  0  0  0  0  0
   95.4230  105.2550   98.4250 H   0  0  0  0  0  0  0  0  0  0  0  0
   97.6180  104.7760   98.9750 H   0  0  0  0  0  0  0  0  0  0  0  0
   94.8420  107.3870   97.6860 H   0  0  0  0  0  0  0  0  0  0  0  0
  100.8300  109.3900   98.2060 H   0  0  0  0  0  0  0  0  0  0  0  0
   96.3960  109.6560   96.4690 H   0  0  0  0  0  0  0  0  0  0  0  0
   96.1350  110.0910   97.9760 H   0  0  0  0  0  0  0  0  0  0  0  0
   98.1630  110.7750   98.1450 H   0  0  0  0  0  0  0  0  0  0  0  0
   98.4410  110.3320   96.6410 H   0  0  0  0  0  0  0  0  0  0  0  0
  100.1080  104.4150   98.8430 H   0  0  0  0  0  0  0  0  0  0  0  0
   99.2660  102.7770  100.9390 H   0  0  0  0  0  0  0  0  0  0  0  0
   99.8380  100.6910  101.7520 H   0  0  0  0  0  0  0  0  0  0  0  0
  103.5370  102.0180  102.5220 H   0  0  0  0  0  0  0  0  0  0  0  0
  102.9590  104.1060  101.7070 H   0  0  0  0  0  0  0  0  0  0  0  0
  102.5550  107.9030   99.2920 H   0  0  0  0  0  0  0  0  0  0  0  0
  102.3860  106.4450   99.0370 H   0  0  0  0  0  0  0  0  0  0  0  0
  1  4  2  0  0  0  0
  4  6  1  0  0  0  0
  6  7  1  0  0  0  0
  7  8  1  0  0  0  0
  1  9  1  0  0  0  0
  8  9  2  0  0  0  0
  2 10  1  0  0  0  0
  6 10  2  0  0  0  0
  5 11  1  0  0  0  0
 10 11  1  0  0  0  0
 11 12  2  0  0  0  0
  7 13  2  0  0  0  0
 12 13  1  0  0  0  0
  8 14  1  0  0  0  0
 13 15  1  0  0  0  0
 14 15  1  0  0  0  0
  2 16  1  0  0  0  0
  3 16  2  0  0  0  0
 16 17  1  0  0  0  0
 17 18  2  0  0  0  0
 18 19  1  0  0  0  0
 19 20  2  0  0  0  0
 20 21  1  0  0  0  0
 17 22  1  0  0  0  0
 21 22  2  0  0  0  0
 20 23  1  0  0  0  0
  1 24  1  0  0  0  0
  4 25  1  0  0  0  0
  9 26  1  0  0  0  0
 12 27  1  0  0  0  0
 14 28  1  0  0  0  0
 14 29  1  0  0  0  0
 15 30  1  0  0  0  0
 15 31  1  0  0  0  0
  2 32  1  0  0  0  0
 18 33  1  0  0  0  0
 19 34  1  0  0  0  0
 21 35  1  0  0  0  0
 22 36  1  0  0  0  0
  5 37  1  0  0  0  0
  5 38  1  0  0  0  0
M  END
$$$$
