8SHJ
  PyMOL3.1          3D                             0

 78 87  0  0  0  0  0  0  0  0999 V2000
   97.9590   57.1380   11.9660 N   0  0  0  0  0  0  0  0  0  0  0  0
   97.2010   53.1450    7.9520 C   0  0  0  0  0  0  0  0  0  0  0  0
   97.7530   52.0560    8.1070 O   0  0  0  0  0  0  0  0  0  0  0  0
   91.8530   48.4730    7.9410 Cl  0  0  0  0  0  0  0  0  0  0  0  0
   97.4430   54.2710    8.9100 C   0  0  0  0  0  0  0  0  0  0  0  0
   96.3380   53.3720    6.9350 N   0  0  0  0  0  0  0  0  0  0  0  0
   96.4280   58.0790   14.3540 O   0  0  0  0  0  0  0  0  0  0  0  0
   98.3350   54.0460    9.9590 C   0  0  0  0  0  0  0  0  0  0  0  0
   96.5840   52.1260    3.8710 O   0  0  0  0  0  0  0  0  0  0  0  0
   98.5190   54.9960   10.9510 C   0  0  0  0  0  0  0  0  0  0  0  0
   97.8150   56.2050   10.9200 C   0  0  0  0  0  0  0  0  0  0  0  0
   98.9080   56.9830   13.0760 C   0  0  0  0  0  0  0  0  0  0  0  0
   98.7690   58.2800   13.8660 C   0  0  0  0  0  0  0  0  0  0  0  0
   97.3760   58.7690   13.5350 C   0  0  0  0  0  0  0  0  0  0  0  0
   97.2010   58.3810   12.0720 C   0  0  0  0  0  0  0  0  0  0  0  0
   96.9420   56.4440    9.8500 C   0  0  0  0  0  0  0  0  0  0  0  0
   96.7670   55.4910    8.8560 C   0  0  0  0  0  0  0  0  0  0  0  0
   96.0020   52.3720    5.9160 C   0  0  0  0  0  0  0  0  0  0  0  0
   94.9990   51.3500    6.4650 C   0  0  0  0  0  0  0  0  0  0  0  0
   94.6060   50.2580    5.6950 C   0  0  0  0  0  0  0  0  0  0  0  0
   93.6720   49.3490    6.1610 C   0  0  0  0  0  0  0  0  0  0  0  0
   93.1070   49.5470    7.3990 C   0  0  0  0  0  0  0  0  0  0  0  0
   93.4760   50.6120    8.1940 C   0  0  0  0  0  0  0  0  0  0  0  0
   94.4240   51.5070    7.7240 C   0  0  0  0  0  0  0  0  0  0  0  0
   97.1930   51.7730    5.1390 C   0  0  0  0  0  0  0  0  0  0  0  0
   95.6300   52.9820    4.5500 C   0  0  0  0  0  0  0  0  0  0  0  0
   97.7290    3.5670   53.8450 N   0  0  0  0  0  0  0  0  0  0  0  0
   96.9810    7.5010   57.9150 C   0  0  0  0  0  0  0  0  0  0  0  0
   97.4930    8.6080   57.7410 O   0  0  0  0  0  0  0  0  0  0  0  0
   91.6050   12.1270   57.9010 Cl  0  0  0  0  0  0  0  0  0  0  0  0
   97.2210    6.3820   56.9460 C   0  0  0  0  0  0  0  0  0  0  0  0
   96.1460    7.2560   58.9490 N   0  0  0  0  0  0  0  0  0  0  0  0
   96.4620    2.3180   51.3790 O   0  0  0  0  0  0  0  0  0  0  0  0
   98.0710    6.6430   55.8730 C   0  0  0  0  0  0  0  0  0  0  0  0
   96.5150    8.4390   61.9710 O   0  0  0  0  0  0  0  0  0  0  0  0
   98.2310    5.7210   54.8530 C   0  0  0  0  0  0  0  0  0  0  0  0
   97.5560    4.4970   54.8850 C   0  0  0  0  0  0  0  0  0  0  0  0
   98.6810    3.7450   52.7410 C   0  0  0  0  0  0  0  0  0  0  0  0
   98.7380    2.3700   52.0910 C   0  0  0  0  0  0  0  0  0  0  0  0
   97.3700    1.7900   52.3500 C   0  0  0  0  0  0  0  0  0  0  0  0
   97.0290    2.2850   53.7540 C   0  0  0  0  0  0  0  0  0  0  0  0
   96.7160    4.2240   55.9700 C   0  0  0  0  0  0  0  0  0  0  0  0
   96.5600    5.1530   56.9910 C   0  0  0  0  0  0  0  0  0  0  0  0
   95.8020    8.2720   59.9570 C   0  0  0  0  0  0  0  0  0  0  0  0
   94.7800    9.2820   59.4140 C   0  0  0  0  0  0  0  0  0  0  0  0
   94.2220    9.1260   58.1470 C   0  0  0  0  0  0  0  0  0  0  0  0
   93.2730   10.0140   57.6640 C   0  0  0  0  0  0  0  0  0  0  0  0
   92.8740   11.0690   58.4590 C   0  0  0  0  0  0  0  0  0  0  0  0
   93.4190   11.2670   59.7110 C   0  0  0  0  0  0  0  0  0  0  0  0
   94.3630   10.3690   60.1840 C   0  0  0  0  0  0  0  0  0  0  0  0
   97.0230    8.8730   60.6820 C   0  0  0  0  0  0  0  0  0  0  0  0
   95.4880    7.6390   61.3270 C   0  0  0  0  0  0  0  0  0  0  0  0
   57.1980   41.4850   23.9690 N   0  0  0  0  0  0  0  0  0  0  0  0
   57.7460   36.6810   20.9070 C   0  0  0  0  0  0  0  0  0  0  0  0
   58.6450   35.8740   21.1360 O   0  0  0  0  0  0  0  0  0  0  0  0
   53.2680   31.2990   22.3170 Cl  0  0  0  0  0  0  0  0  0  0  0  0
   57.6690   37.9810   21.6510 C   0  0  0  0  0  0  0  0  0  0  0  0
   56.7900   36.4550   19.9760 N   0  0  0  0  0  0  0  0  0  0  0  0
   58.6770   44.0280   24.4560 O   0  0  0  0  0  0  0  0  0  0  0  0
   58.4610   38.2000   22.7800 C   0  0  0  0  0  0  0  0  0  0  0  0
   57.1590   34.6510   17.1520 O   0  0  0  0  0  0  0  0  0  0  0  0
   58.3290   39.3610   23.5260 C   0  0  0  0  0  0  0  0  0  0  0  0
   57.3940   40.3390   23.1650 C   0  0  0  0  0  0  0  0  0  0  0  0
   56.1570   42.4930   23.7280 C   0  0  0  0  0  0  0  0  0  0  0  0
   56.3440   43.5040   24.8600 C   0  0  0  0  0  0  0  0  0  0  0  0
   57.7780   43.3050   25.3090 C   0  0  0  0  0  0  0  0  0  0  0  0
   57.9850   41.8050   25.1560 C   0  0  0  0  0  0  0  0  0  0  0  0
   56.6180   40.1300   22.0200 C   0  0  0  0  0  0  0  0  0  0  0  0
   56.7580   38.9690   21.2730 C   0  0  0  0  0  0  0  0  0  0  0  0
   56.6390   35.2070   19.1540 C   0  0  0  0  0  0  0  0  0  0  0  0
   55.8130   34.2000   19.9640 C   0  0  0  0  0  0  0  0  0  0  0  0
   55.2460   34.5690   21.1820 C   0  0  0  0  0  0  0  0  0  0  0  0
   54.4770   33.6810   21.9140 C   0  0  0  0  0  0  0  0  0  0  0  0
   54.2730   32.4060   21.4240 C   0  0  0  0  0  0  0  0  0  0  0  0
   54.8270   32.0020   20.2240 C   0  0  0  0  0  0  0  0  0  0  0  0
   55.5910   32.9030   19.4980 C   0  0  0  0  0  0  0  0  0  0  0  0
   57.8720   34.6460   18.4150 C   0  0  0  0  0  0  0  0  0  0  0  0
   56.1160   35.4770   17.7280 C   0  0  0  0  0  0  0  0  0  0  0  0
  2  3  2  0  0  0  0
  2  5  1  0  0  0  0
  2  6  1  0  0  0  0
  5  8  1  0  0  0  0
  8 10  2  0  0  0  0
  1 11  1  0  0  0  0
 10 11  1  0  0  0  0
  1 12  1  0  0  0  0
 12 13  1  0  0  0  0
  7 14  1  0  0  0  0
 13 14  1  0  0  0  0
  1 15  1  0  0  0  0
 14 15  1  0  0  0  0
 11 16  2  0  0  0  0
  5 17  2  0  0  0  0
 16 17  1  0  0  0  0
  6 18  1  0  0  0  0
 18 19  1  0  0  0  0
 19 20  1  0  0  0  0
 20 21  2  0  0  0  0
  4 22  1  0  0  0  0
 21 22  1  0  0  0  0
 22 23  2  0  0  0  0
 19 24  2  0  0  0  0
 23 24  1  0  0  0  0
  9 25  1  0  0  0  0
 18 25  1  0  0  0  0
  9 26  1  0  0  0  0
 18 26  1  0  0  0  0
 28 29  2  0  0  0  0
 28 31  1  0  0  0  0
 28 32  1  0  0  0  0
 31 34  1  0  0  0  0
 34 36  2  0  0  0  0
 27 37  1  0  0  0  0
 36 37  1  0  0  0  0
 27 38  1  0  0  0  0
 38 39  1  0  0  0  0
 33 40  1  0  0  0  0
 39 40  1  0  0  0  0
 27 41  1  0  0  0  0
 40 41  1  0  0  0  0
 37 42  2  0  0  0  0
 31 43  2  0  0  0  0
 42 43  1  0  0  0  0
 32 44  1  0  0  0  0
 44 45  1  0  0  0  0
 45 46  1  0  0  0  0
 46 47  2  0  0  0  0
 30 48  1  0  0  0  0
 47 48  1  0  0  0  0
 48 49  2  0  0  0  0
 45 50  2  0  0  0  0
 49 50  1  0  0  0  0
 35 51  1  0  0  0  0
 44 51  1  0  0  0  0
 35 52  1  0  0  0  0
 44 52  1  0  0  0  0
 54 55  2  0  0  0  0
 54 57  1  0  0  0  0
 54 58  1  0  0  0  0
 57 60  1  0  0  0  0
 60 62  2  0  0  0  0
 53 63  1  0  0  0  0
 62 63  1  0  0  0  0
 53 64  1  0  0  0  0
 64 65  1  0  0  0  0
 59 66  1  0  0  0  0
 65 66  1  0  0  0  0
 53 67  1  0  0  0  0
 66 67  1  0  0  0  0
 63 68  2  0  0  0  0
 57 69  2  0  0  0  0
 68 69  1  0  0  0  0
 58 70  1  0  0  0  0
 70 71  1  0  0  0  0
 71 72  1  0  0  0  0
 72 73  2  0  0  0  0
 56 74  1  0  0  0  0
 73 74  1  0  0  0  0
 74 75  2  0  0  0  0
 71 76  2  0  0  0  0
 75 76  1  0  0  0  0
 61 77  1  0  0  0  0
 70 77  1  0  0  0  0
 61 78  1  0  0  0  0
 70 78  1  0  0  0  0
M  END
$$$$
