6SLO
  PyMOL3.1          3D                             0

 22 24  0  0  0  0  0  0  0  0999 V2000
   48.8830   34.8120   21.2740 C   0  0  0  0  0  0  0  0  0  0  0  0
   44.1440   35.2570   20.9430 C   0  0  0  0  0  0  0  0  0  0  0  0
   48.5520   26.9890   19.1120 C   0  0  0  0  0  0  0  0  0  0  0  0
   48.6390   27.8110   20.2400 C   0  0  0  0  0  0  0  0  0  0  0  0
   47.5350   32.4040   21.7520 C   0  0  0  0  0  0  0  0  0  0  0  0
   46.2870   27.9020   18.5490 C   0  0  0  0  0  0  0  0  0  0  0  0
   45.1910   32.3510   20.1090 C   0  0  0  0  0  0  0  0  0  0  0  0
   43.1810   28.3040   20.0370 C   0  0  0  0  0  0  0  0  0  0  0  0
   42.6910   28.2880   21.5610 C   0  0  0  0  0  0  0  0  0  0  0  0
   43.8550   29.6260   19.5970 C   0  0  0  0  0  0  0  0  0  0  0  0
   47.3950   27.0520   18.2990 C   0  0  0  0  0  0  0  0  0  0  0  0
   46.9250   33.5990   21.3150 C   0  0  0  0  0  0  0  0  0  0  0  0
   45.7670   33.5810   20.4950 C   0  0  0  0  0  0  0  0  0  0  0  0
   47.5180   28.6570   20.5060 C   0  0  0  0  0  0  0  0  0  0  0  0
   46.9460   31.1660   21.3690 C   0  0  0  0  0  0  0  0  0  0  0  0
   47.5380   34.8210   21.6940 O   0  0  0  0  0  0  0  0  0  0  0  0
   45.1590   34.8040   20.0580 O   0  0  0  0  0  0  0  0  0  0  0  0
   47.6580   29.6480   21.9040 S   0  0  0  0  0  0  0  0  0  0  0  0
   46.3740   28.7340   19.7150 C   0  0  0  0  0  0  0  0  0  0  0  0
   45.8010   31.1390   20.5700 C   0  0  0  0  0  0  0  0  0  0  0  0
   45.2270   29.7340   20.1520 N   0  0  0  0  0  0  0  0  0  0  0  0
   47.4070   25.9640   16.9080 Cl  0  0  0  0  0  0  0  0  0  0  0  0
  3  4  1  0  0  0  0
  8  9  1  0  0  0  0
  8 10  1  0  0  0  0
  3 11  2  0  0  0  0
  6 11  1  0  0  0  0
  5 12  1  0  0  0  0
  7 13  1  0  0  0  0
 12 13  2  0  0  0  0
  4 14  2  0  0  0  0
  5 15  2  0  0  0  0
  1 16  1  0  0  0  0
 12 16  1  0  0  0  0
  2 17  1  0  0  0  0
 13 17  1  0  0  0  0
 14 18  1  0  0  0  0
 15 18  1  0  0  0  0
  6 19  2  0  0  0  0
 14 19  1  0  0  0  0
  7 20  2  0  0  0  0
 15 20  1  0  0  0  0
 10 21  1  0  0  0  0
 19 21  1  0  0  0  0
 20 21  1  0  0  0  0
 11 22  1  0  0  0  0
M  END
$$$$
