8W2L
  PyMOL3.1          3D                             0

 24 27  0  0  0  0  0  0  0  0999 V2000
  134.7450  176.7190  181.5070 Cl  0  0  0  0  0  0  0  0  0  0  0  0
  132.7690  167.8530  184.1880 N   0  0  0  0  0  0  0  0  0  0  0  0
  132.5130  168.8250  183.1220 C   0  0  0  0  0  0  0  0  0  0  0  0
  133.7090  169.5700  185.6460 C   0  0  0  0  0  0  0  0  0  0  0  0
  134.7820  171.6020  184.6740 C   0  0  0  0  0  0  0  0  0  0  0  0
  133.6080  170.6230  184.5470 C   0  0  0  0  0  0  0  0  0  0  0  0
  132.3530  171.4180  184.7500 N   0  3  0  0  0  0  0  0  0  0  0  0
  132.6770  168.4640  185.5160 C   0  0  0  0  0  0  0  0  0  0  0  0
  134.7470  172.8840  183.8770 C   0  0  0  0  0  0  0  0  0  0  0  0
  134.9640  172.8750  182.5110 C   0  0  0  0  0  0  0  0  0  0  0  0
  134.9590  174.0470  181.7780 C   0  0  0  0  0  0  0  0  0  0  0  0
  134.7350  175.2380  182.4220 C   0  0  0  0  0  0  0  0  0  0  0  0
  134.5160  175.2840  183.7760 C   0  0  0  0  0  0  0  0  0  0  0  0
  134.5230  174.1040  184.4970 C   0  0  0  0  0  0  0  0  0  0  0  0
  132.4260  166.5200  184.0620 C   0  0  0  0  0  0  0  0  0  0  0  0
  133.5430  169.9400  183.1850 C   0  0  0  0  0  0  0  0  0  0  0  0
  131.9270  165.9360  185.1610 N   0  0  0  0  0  0  0  0  0  0  0  0
  131.6460  164.6320  185.0670 C   0  0  0  0  0  0  0  0  0  0  0  0
  131.7890  163.8140  184.0230 N   0  0  0  0  0  0  0  0  0  0  0  0
  132.2860  164.4280  182.9420 C   0  0  0  0  0  0  0  0  0  0  0  0
  132.5240  163.8500  181.7290 N   0  0  0  0  0  0  0  0  0  0  0  0
  133.0120  164.8130  180.8830 C   0  0  0  0  0  0  0  0  0  0  0  0
  133.0970  166.0050  181.5250 C   0  0  0  0  0  0  0  0  0  0  0  0
  132.6360  165.7870  182.8590 C   0  0  0  0  0  0  0  0  0  0  0  0
  2  3  1  0  0  0  0
  4  6  1  0  0  0  0
  5  6  1  0  0  0  0
  6  7  1  0  0  0  0
  2  8  1  0  0  0  0
  4  8  1  0  0  0  0
  5  9  1  0  0  0  0
  9 10  1  0  0  0  0
 10 11  2  0  0  0  0
  1 12  1  0  0  0  0
 11 12  1  0  0  0  0
 12 13  2  0  0  0  0
  9 14  2  0  0  0  0
 13 14  1  0  0  0  0
  2 15  1  0  0  0  0
  3 16  1  0  0  0  0
  6 16  1  0  0  0  0
 15 17  1  0  0  0  0
 17 18  2  0  0  0  0
 18 19  1  0  0  0  0
 19 20  2  0  0  0  0
 20 21  1  0  0  0  0
 21 22  1  0  0  0  0
 22 23  2  0  0  0  0
 15 24  2  0  0  0  0
 20 24  1  0  0  0  0
 23 24  1  0  0  0  0
M  END
$$$$
