7MIP
  PyMOL3.1          3D                             0

 55 59  0  0  0  0  0  0  0  0999 V2000
  128.3370  149.5050  145.9780 C   0  0  0  0  0  0  0  0  0  0  0  0
  127.9210  148.2280  146.1890 N   0  0  0  0  0  0  0  0  0  0  0  0
  129.6800  149.7770  145.8530 O   0  0  0  0  0  0  0  0  0  0  0  0
  124.1620  138.5940  143.2720 S   0  0  0  0  0  0  0  0  0  0  0  0
  127.4200  150.5410  145.9000 C   0  0  0  0  0  0  0  0  0  0  0  0
  126.0890  150.3250  146.0310 N   0  0  0  0  0  0  0  0  0  0  0  0
  125.7260  141.6810  147.7630 O   0  0  0  0  0  0  0  0  0  0  0  0
  127.3490  138.1180  142.8470 S   0  0  0  0  0  0  0  0  0  0  0  0
  125.6810  149.0520  146.2460 C   0  0  0  0  0  0  0  0  0  0  0  0
  124.5080  144.8530  146.5790 N   0  0  0  0  0  0  0  0  0  0  0  0
  126.7400  136.8060  143.0460 O   0  0  0  0  0  0  0  0  0  0  0  0
  126.5920  147.9910  146.3340 C   0  0  0  0  0  0  0  0  0  0  0  0
  123.7950  142.2080  146.7090 N   0  0  0  0  0  0  0  0  0  0  0  0
  128.8120  138.1360  142.8300 O   0  0  0  0  0  0  0  0  0  0  0  0
  130.5700  148.6790  145.7470 C   0  0  0  0  0  0  0  0  0  0  0  0
  125.0800  140.0860  145.1210 N   0  0  0  0  0  0  0  0  0  0  0  0
  131.9850  149.2040  145.7970 C   0  0  0  0  0  0  0  0  0  0  0  0
  126.7780  139.1970  143.8020 N   0  0  0  0  0  0  0  0  0  0  0  0
  126.2000  146.5860  146.6160 C   0  0  0  0  0  0  0  0  0  0  0  0
  124.9050  146.1280  146.3640 C   0  0  0  0  0  0  0  0  0  0  0  0
  125.4120  143.9580  147.0750 C   0  0  0  0  0  0  0  0  0  0  0  0
  126.7210  144.3420  147.3770 C   0  0  0  0  0  0  0  0  0  0  0  0
  127.1090  145.6570  147.1430 C   0  0  0  0  0  0  0  0  0  0  0  0
  124.9880  142.5170  147.2350 C   0  0  0  0  0  0  0  0  0  0  0  0
  123.7740  140.0870  145.3090 C   0  0  0  0  0  0  0  0  0  0  0  0
  123.0570  139.3410  144.3790 C   0  0  0  0  0  0  0  0  0  0  0  0
  125.4830  139.3450  144.1300 C   0  0  0  0  0  0  0  0  0  0  0  0
  126.7510  138.6710  141.1480 C   0  0  0  0  0  0  0  0  0  0  0  0
  127.1250  140.0580  140.7180 C   0  0  0  0  0  0  0  0  0  0  0  0
  127.7650  138.8520  140.0540 C   0  0  0  0  0  0  0  0  0  0  0  0
  123.2670  140.8720  146.5180 C   0  0  0  0  0  0  0  0  0  0  0  0
  121.8250  140.7210  146.9310 C   0  0  0  0  0  0  0  0  0  0  0  0
  122.9110  140.0680  147.7460 C   0  0  0  0  0  0  0  0  0  0  0  0
  127.4350  139.8440  144.2130 H   0  0  0  0  0  0  0  0  0  0  0  0
  127.7760  151.5470  145.7300 H   0  0  0  0  0  0  0  0  0  0  0  0
  124.6260  148.8490  146.3520 H   0  0  0  0  0  0  0  0  0  0  0  0
  123.2090  142.9780  146.4190 H   0  0  0  0  0  0  0  0  0  0  0  0
  124.1810  146.8300  145.9760 H   0  0  0  0  0  0  0  0  0  0  0  0
  127.4210  143.6280  147.7860 H   0  0  0  0  0  0  0  0  0  0  0  0
  128.1190  145.9650  147.3690 H   0  0  0  0  0  0  0  0  0  0  0  0
  121.9820  139.2430  144.3510 H   0  0  0  0  0  0  0  0  0  0  0  0
  125.7660  138.3180  140.8420 H   0  0  0  0  0  0  0  0  0  0  0  0
  130.4030  148.1600  144.8030 H   0  0  0  0  0  0  0  0  0  0  0  0
  130.4050  147.9920  146.5770 H   0  0  0  0  0  0  0  0  0  0  0  0
  132.1300  149.7720  146.7160 H   0  0  0  0  0  0  0  0  0  0  0  0
  132.6840  148.3680  145.7720 H   0  0  0  0  0  0  0  0  0  0  0  0
  132.1630  149.8510  144.9380 H   0  0  0  0  0  0  0  0  0  0  0  0
  127.7140  140.6940  141.3790 H   0  0  0  0  0  0  0  0  0  0  0  0
  126.3770  140.5770  140.1180 H   0  0  0  0  0  0  0  0  0  0  0  0
  127.5100  138.5960  139.0260 H   0  0  0  0  0  0  0  0  0  0  0  0
  128.7980  138.6570  140.3400 H   0  0  0  0  0  0  0  0  0  0  0  0
  121.1490  140.1080  146.3340 H   0  0  0  0  0  0  0  0  0  0  0  0
  121.3750  141.6060  147.3810 H   0  0  0  0  0  0  0  0  0  0  0  0
  123.0210  138.9840  147.7380 H   0  0  0  0  0  0  0  0  0  0  0  0
  123.1320  140.5510  148.6980 H   0  0  0  0  0  0  0  0  0  0  0  0
  1  3  1  0  0  0  0
  1  5  4  0  0  0  0
  1  2  4  0  0  0  0
  2 12  4  0  0  0  0
  5  6  4  0  0  0  0
  5 35  1  0  0  0  0
  6  9  4  0  0  0  0
  9 36  1  0  0  0  0
 10 20  4  0  0  0  0
 10 21  4  0  0  0  0
  8 11  2  0  0  0  0
  9 12  4  0  0  0  0
 12 19  1  0  0  0  0
 13 37  1  0  0  0  0
  8 14  2  0  0  0  0
  3 15  1  0  0  0  0
 15 17  1  0  0  0  0
 15 43  1  0  0  0  0
 15 44  1  0  0  0  0
 17 45  1  0  0  0  0
 17 46  1  0  0  0  0
 17 47  1  0  0  0  0
  8 18  1  0  0  0  0
 18 34  1  0  0  0  0
 19 20  4  0  0  0  0
 19 23  4  0  0  0  0
 20 38  1  0  0  0  0
 21 22  4  0  0  0  0
 22 23  4  0  0  0  0
 22 39  1  0  0  0  0
 23 40  1  0  0  0  0
  7 24  2  0  0  0  0
 13 24  1  0  0  0  0
 21 24  1  0  0  0  0
 16 25  4  0  0  0  0
 25 26  4  0  0  0  0
 25 31  1  0  0  0  0
  4 26  4  0  0  0  0
 26 41  1  0  0  0  0
  4 27  4  0  0  0  0
 16 27  4  0  0  0  0
 18 27  1  0  0  0  0
  8 28  1  0  0  0  0
 28 30  1  0  0  0  0
 28 42  1  0  0  0  0
 28 29  1  0  0  0  0
 29 30  1  0  0  0  0
 29 48  1  0  0  0  0
 29 49  1  0  0  0  0
 30 50  1  0  0  0  0
 30 51  1  0  0  0  0
 13 31  1  0  0  0  0
 31 32  1  0  0  0  0
 32 33  1  0  0  0  0
 32 52  1  0  0  0  0
 32 53  1  0  0  0  0
 31 33  1  0  0  0  0
 33 54  1  0  0  0  0
 33 55  1  0  0  0  0
M  END
$$$$
