7MIP
  PyMOL3.1          3D                             0

 55 59  0  0  0  0  0  0  0  0999 V2000
  186.6810  165.4980  145.9820 C   0  0  0  0  0  0  0  0  0  0  0  0
  187.0970  166.7760  146.1910 N   0  0  0  0  0  0  0  0  0  0  0  0
  185.3380  165.2270  145.8560 O   0  0  0  0  0  0  0  0  0  0  0  0
  190.8600  176.4090  143.2710 S   0  0  0  0  0  0  0  0  0  0  0  0
  187.5980  164.4620  145.9040 C   0  0  0  0  0  0  0  0  0  0  0  0
  188.9290  164.6780  146.0360 N   0  0  0  0  0  0  0  0  0  0  0  0
  189.2940  173.3230  147.7620 O   0  0  0  0  0  0  0  0  0  0  0  0
  187.6720  176.8840  142.8470 S   0  0  0  0  0  0  0  0  0  0  0  0
  189.3370  165.9520  146.2490 C   0  0  0  0  0  0  0  0  0  0  0  0
  190.5130  170.1500  146.5820 N   0  0  0  0  0  0  0  0  0  0  0  0
  188.2810  178.1970  143.0440 O   0  0  0  0  0  0  0  0  0  0  0  0
  188.4260  167.0120  146.3360 C   0  0  0  0  0  0  0  0  0  0  0  0
  191.2260  172.7950  146.7100 N   0  0  0  0  0  0  0  0  0  0  0  0
  186.2090  176.8660  142.8290 O   0  0  0  0  0  0  0  0  0  0  0  0
  184.4480  166.3260  145.7520 C   0  0  0  0  0  0  0  0  0  0  0  0
  189.9410  174.9180  145.1220 N   0  0  0  0  0  0  0  0  0  0  0  0
  183.0330  165.8010  145.8000 C   0  0  0  0  0  0  0  0  0  0  0  0
  188.2430  175.8060  143.8020 N   0  0  0  0  0  0  0  0  0  0  0  0
  188.8200  168.4180  146.6170 C   0  0  0  0  0  0  0  0  0  0  0  0
  190.1160  168.8750  146.3680 C   0  0  0  0  0  0  0  0  0  0  0  0
  189.6080  171.0460  147.0750 C   0  0  0  0  0  0  0  0  0  0  0  0
  188.2980  170.6630  147.3730 C   0  0  0  0  0  0  0  0  0  0  0  0
  187.9090  169.3490  147.1390 C   0  0  0  0  0  0  0  0  0  0  0  0
  190.0320  172.4870  147.2340 C   0  0  0  0  0  0  0  0  0  0  0  0
  191.2470  174.9170  145.3090 C   0  0  0  0  0  0  0  0  0  0  0  0
  191.9630  175.6630  144.3800 C   0  0  0  0  0  0  0  0  0  0  0  0
  189.5380  175.6590  144.1300 C   0  0  0  0  0  0  0  0  0  0  0  0
  188.2700  176.3320  141.1480 C   0  0  0  0  0  0  0  0  0  0  0  0
  187.8950  174.9440  140.7190 C   0  0  0  0  0  0  0  0  0  0  0  0
  187.2560  176.1490  140.0540 C   0  0  0  0  0  0  0  0  0  0  0  0
  191.7530  174.1320  146.5180 C   0  0  0  0  0  0  0  0  0  0  0  0
  193.1950  174.2830  146.9330 C   0  0  0  0  0  0  0  0  0  0  0  0
  192.1100  174.9360  147.7460 C   0  0  0  0  0  0  0  0  0  0  0  0
  187.5860  175.1580  144.2130 H   0  0  0  0  0  0  0  0  0  0  0  0
  187.2430  163.4570  145.7340 H   0  0  0  0  0  0  0  0  0  0  0  0
  190.3920  166.1560  146.3540 H   0  0  0  0  0  0  0  0  0  0  0  0
  191.8130  172.0250  146.4220 H   0  0  0  0  0  0  0  0  0  0  0  0
  190.8400  168.1720  145.9840 H   0  0  0  0  0  0  0  0  0  0  0  0
  187.5970  171.3780  147.7790 H   0  0  0  0  0  0  0  0  0  0  0  0
  186.8980  169.0420  147.3610 H   0  0  0  0  0  0  0  0  0  0  0  0
  193.0380  175.7620  144.3540 H   0  0  0  0  0  0  0  0  0  0  0  0
  189.2550  176.6850  140.8420 H   0  0  0  0  0  0  0  0  0  0  0  0
  184.6140  167.0130  146.5820 H   0  0  0  0  0  0  0  0  0  0  0  0
  184.6150  166.8440  144.8080 H   0  0  0  0  0  0  0  0  0  0  0  0
  182.8870  165.2330  146.7190 H   0  0  0  0  0  0  0  0  0  0  0  0
  182.8570  165.1540  144.9410 H   0  0  0  0  0  0  0  0  0  0  0  0
  182.3340  166.6370  145.7750 H   0  0  0  0  0  0  0  0  0  0  0  0
  188.6090  174.3320  140.1680 H   0  0  0  0  0  0  0  0  0  0  0  0
  187.2530  174.4000  141.4120 H   0  0  0  0  0  0  0  0  0  0  0  0
  186.2070  176.3810  140.2370 H   0  0  0  0  0  0  0  0  0  0  0  0
  187.6120  176.3690  139.0480 H   0  0  0  0  0  0  0  0  0  0  0  0
  193.8720  174.8950  146.3370 H   0  0  0  0  0  0  0  0  0  0  0  0
  193.6440  173.3980  147.3830 H   0  0  0  0  0  0  0  0  0  0  0  0
  192.0010  176.0210  147.7380 H   0  0  0  0  0  0  0  0  0  0  0  0
  191.8880  174.4540  148.6980 H   0  0  0  0  0  0  0  0  0  0  0  0
  1  3  1  0  0  0  0
  1  5  4  0  0  0  0
  1  2  4  0  0  0  0
  2 12  4  0  0  0  0
  5  6  4  0  0  0  0
  5 35  1  0  0  0  0
  6  9  4  0  0  0  0
  9 36  1  0  0  0  0
 10 20  4  0  0  0  0
 10 21  4  0  0  0  0
  8 11  2  0  0  0  0
  9 12  4  0  0  0  0
 12 19  1  0  0  0  0
 13 37  1  0  0  0  0
  8 14  2  0  0  0  0
  3 15  1  0  0  0  0
 15 17  1  0  0  0  0
 15 43  1  0  0  0  0
 15 44  1  0  0  0  0
 17 45  1  0  0  0  0
 17 46  1  0  0  0  0
 17 47  1  0  0  0  0
  8 18  1  0  0  0  0
 18 34  1  0  0  0  0
 19 20  4  0  0  0  0
 19 23  4  0  0  0  0
 20 38  1  0  0  0  0
 21 22  4  0  0  0  0
 22 23  4  0  0  0  0
 22 39  1  0  0  0  0
 23 40  1  0  0  0  0
  7 24  2  0  0  0  0
 13 24  1  0  0  0  0
 21 24  1  0  0  0  0
 16 25  4  0  0  0  0
 25 26  4  0  0  0  0
 25 31  1  0  0  0  0
  4 26  4  0  0  0  0
 26 41  1  0  0  0  0
  4 27  4  0  0  0  0
 16 27  4  0  0  0  0
 18 27  1  0  0  0  0
  8 28  1  0  0  0  0
 28 30  1  0  0  0  0
 28 42  1  0  0  0  0
 28 29  1  0  0  0  0
 29 30  1  0  0  0  0
 29 48  1  0  0  0  0
 29 49  1  0  0  0  0
 30 50  1  0  0  0  0
 30 51  1  0  0  0  0
 13 31  1  0  0  0  0
 31 32  1  0  0  0  0
 32 33  1  0  0  0  0
 32 52  1  0  0  0  0
 32 53  1  0  0  0  0
 31 33  1  0  0  0  0
 33 54  1  0  0  0  0
 33 55  1  0  0  0  0
M  END
$$$$
