7MIP
  PyMOL3.1          3D                             0

 55 59  0  0  0  0  0  0  0  0999 V2000
  186.6740  149.5160  169.0320 C   0  0  0  0  0  0  0  0  0  0  0  0
  187.0900  148.2390  168.8220 N   0  0  0  0  0  0  0  0  0  0  0  0
  185.3310  149.7880  169.1570 O   0  0  0  0  0  0  0  0  0  0  0  0
  190.8470  138.6050  171.7420 S   0  0  0  0  0  0  0  0  0  0  0  0
  187.5920  150.5520  169.1100 C   0  0  0  0  0  0  0  0  0  0  0  0
  188.9230  150.3360  168.9800 N   0  0  0  0  0  0  0  0  0  0  0  0
  189.2850  141.6910  167.2500 O   0  0  0  0  0  0  0  0  0  0  0  0
  187.6600  138.1300  172.1670 S   0  0  0  0  0  0  0  0  0  0  0  0
  189.3300  149.0620  168.7650 C   0  0  0  0  0  0  0  0  0  0  0  0
  190.5030  144.8630  168.4330 N   0  0  0  0  0  0  0  0  0  0  0  0
  188.2690  136.8180  171.9680 O   0  0  0  0  0  0  0  0  0  0  0  0
  188.4190  148.0020  168.6770 C   0  0  0  0  0  0  0  0  0  0  0  0
  191.2150  142.2180  168.3040 N   0  0  0  0  0  0  0  0  0  0  0  0
  186.1970  138.1480  172.1830 O   0  0  0  0  0  0  0  0  0  0  0  0
  184.4410  148.6900  169.2630 C   0  0  0  0  0  0  0  0  0  0  0  0
  189.9300  140.0970  169.8930 N   0  0  0  0  0  0  0  0  0  0  0  0
  183.0260  149.2160  169.2120 C   0  0  0  0  0  0  0  0  0  0  0  0
  188.2310  139.2080  171.2120 N   0  0  0  0  0  0  0  0  0  0  0  0
  188.8110  146.5960  168.3960 C   0  0  0  0  0  0  0  0  0  0  0  0
  190.1060  146.1380  168.6480 C   0  0  0  0  0  0  0  0  0  0  0  0
  189.5990  143.9680  167.9380 C   0  0  0  0  0  0  0  0  0  0  0  0
  188.2900  144.3520  167.6350 C   0  0  0  0  0  0  0  0  0  0  0  0
  187.9020  145.6670  167.8690 C   0  0  0  0  0  0  0  0  0  0  0  0
  190.0230  142.5270  167.7780 C   0  0  0  0  0  0  0  0  0  0  0  0
  191.2360  140.0970  169.7050 C   0  0  0  0  0  0  0  0  0  0  0  0
  191.9520  139.3520  170.6350 C   0  0  0  0  0  0  0  0  0  0  0  0
  189.5260  139.3560  170.8840 C   0  0  0  0  0  0  0  0  0  0  0  0
  188.2580  138.6830  173.8660 C   0  0  0  0  0  0  0  0  0  0  0  0
  187.8840  140.0700  174.2950 C   0  0  0  0  0  0  0  0  0  0  0  0
  187.2430  138.8650  174.9590 C   0  0  0  0  0  0  0  0  0  0  0  0
  191.7430  140.8820  168.4960 C   0  0  0  0  0  0  0  0  0  0  0  0
  193.1850  140.7310  168.0830 C   0  0  0  0  0  0  0  0  0  0  0  0
  192.0990  140.0780  167.2680 C   0  0  0  0  0  0  0  0  0  0  0  0
  187.5740  139.8550  170.8010 H   0  0  0  0  0  0  0  0  0  0  0  0
  187.2370  151.5580  169.2790 H   0  0  0  0  0  0  0  0  0  0  0  0
  190.3850  148.8580  168.6590 H   0  0  0  0  0  0  0  0  0  0  0  0
  191.8010  142.9880  168.5940 H   0  0  0  0  0  0  0  0  0  0  0  0
  190.8300  146.8400  169.0360 H   0  0  0  0  0  0  0  0  0  0  0  0
  187.5900  143.6390  167.2250 H   0  0  0  0  0  0  0  0  0  0  0  0
  186.8920  145.9750  167.6430 H   0  0  0  0  0  0  0  0  0  0  0  0
  193.0270  139.2540  170.6630 H   0  0  0  0  0  0  0  0  0  0  0  0
  189.2430  138.3290  174.1720 H   0  0  0  0  0  0  0  0  0  0  0  0
  184.6070  148.1720  170.2070 H   0  0  0  0  0  0  0  0  0  0  0  0
  184.6070  148.0030  168.4340 H   0  0  0  0  0  0  0  0  0  0  0  0
  182.8820  149.7830  168.2930 H   0  0  0  0  0  0  0  0  0  0  0  0
  182.8480  149.8640  170.0700 H   0  0  0  0  0  0  0  0  0  0  0  0
  182.3270  148.3800  169.2370 H   0  0  0  0  0  0  0  0  0  0  0  0
  187.2950  140.7060  173.6330 H   0  0  0  0  0  0  0  0  0  0  0  0
  188.6320  140.5890  174.8950 H   0  0  0  0  0  0  0  0  0  0  0  0
  187.4960  138.6090  175.9880 H   0  0  0  0  0  0  0  0  0  0  0  0
  186.2100  138.6700  174.6720 H   0  0  0  0  0  0  0  0  0  0  0  0
  193.7280  141.5860  167.6800 H   0  0  0  0  0  0  0  0  0  0  0  0
  193.7760  140.0530  168.6980 H   0  0  0  0  0  0  0  0  0  0  0  0
  191.9890  138.9940  167.2760 H   0  0  0  0  0  0  0  0  0  0  0  0
  191.8780  140.5610  166.3160 H   0  0  0  0  0  0  0  0  0  0  0  0
  1  2  1  0  0  0  0
  1  3  1  0  0  0  0
  1  5  2  0  0  0  0
  5  6  1  0  0  0  0
  6  9  2  0  0  0  0
  8 11  2  0  0  0  0
  2 12  2  0  0  0  0
  9 12  1  0  0  0  0
  8 14  2  0  0  0  0
  3 15  1  0  0  0  0
 15 17  1  0  0  0  0
  8 18  1  0  0  0  0
 12 19  1  0  0  0  0
 10 20  2  0  0  0  0
 19 20  1  0  0  0  0
 10 21  1  0  0  0  0
 21 22  2  0  0  0  0
 19 23  2  0  0  0  0
 22 23  1  0  0  0  0
  7 24  2  0  0  0  0
 13 24  1  0  0  0  0
 21 24  1  0  0  0  0
 16 25  1  0  0  0  0
  4 26  1  0  0  0  0
 25 26  2  0  0  0  0
  4 27  1  0  0  0  0
 16 27  2  0  0  0  0
 18 27  1  0  0  0  0
  8 28  1  0  0  0  0
 28 29  1  0  0  0  0
 28 30  1  0  0  0  0
 29 30  1  0  0  0  0
 13 31  1  0  0  0  0
 25 31  1  0  0  0  0
 31 32  1  0  0  0  0
 31 33  1  0  0  0  0
 32 33  1  0  0  0  0
 18 34  1  0  0  0  0
  5 35  1  0  0  0  0
  9 36  1  0  0  0  0
 13 37  1  0  0  0  0
 20 38  1  0  0  0  0
 22 39  1  0  0  0  0
 23 40  1  0  0  0  0
 26 41  1  0  0  0  0
 28 42  1  0  0  0  0
 15 43  1  0  0  0  0
 15 44  1  0  0  0  0
 17 45  1  0  0  0  0
 17 46  1  0  0  0  0
 17 47  1  0  0  0  0
 29 48  1  0  0  0  0
 29 49  1  0  0  0  0
 30 50  1  0  0  0  0
 30 51  1  0  0  0  0
 32 52  1  0  0  0  0
 32 53  1  0  0  0  0
 33 54  1  0  0  0  0
 33 55  1  0  0  0  0
M  END
$$$$
