7MIP
  PyMOL3.1          3D                             0

 55 59  0  0  0  0  0  0  0  0999 V2000
  128.3380  165.4940  169.0240 C   0  0  0  0  0  0  0  0  0  0  0  0
  127.9220  166.7720  168.8140 N   0  0  0  0  0  0  0  0  0  0  0  0
  129.6810  165.2220  169.1490 O   0  0  0  0  0  0  0  0  0  0  0  0
  124.1620  176.4060  171.7320 S   0  0  0  0  0  0  0  0  0  0  0  0
  127.4210  164.4580  169.1020 C   0  0  0  0  0  0  0  0  0  0  0  0
  126.0900  164.6740  168.9700 N   0  0  0  0  0  0  0  0  0  0  0  0
  125.7260  173.3190  167.2420 O   0  0  0  0  0  0  0  0  0  0  0  0
  127.3500  176.8810  172.1560 S   0  0  0  0  0  0  0  0  0  0  0  0
  125.6820  165.9480  168.7570 C   0  0  0  0  0  0  0  0  0  0  0  0
  124.5070  170.1460  168.4230 N   0  0  0  0  0  0  0  0  0  0  0  0
  126.7410  178.1940  171.9580 O   0  0  0  0  0  0  0  0  0  0  0  0
  126.5930  167.0080  168.6700 C   0  0  0  0  0  0  0  0  0  0  0  0
  123.7940  172.7910  168.2950 N   0  0  0  0  0  0  0  0  0  0  0  0
  128.8130  176.8620  172.1730 O   0  0  0  0  0  0  0  0  0  0  0  0
  130.5710  166.3210  169.2530 C   0  0  0  0  0  0  0  0  0  0  0  0
  125.0800  174.9140  169.8820 N   0  0  0  0  0  0  0  0  0  0  0  0
  131.9860  165.7960  169.2050 C   0  0  0  0  0  0  0  0  0  0  0  0
  126.7780  175.8030  171.2010 N   0  0  0  0  0  0  0  0  0  0  0  0
  126.2000  168.4140  168.3880 C   0  0  0  0  0  0  0  0  0  0  0  0
  124.9040  168.8710  168.6370 C   0  0  0  0  0  0  0  0  0  0  0  0
  125.4120  171.0420  167.9300 C   0  0  0  0  0  0  0  0  0  0  0  0
  126.7220  170.6590  167.6320 C   0  0  0  0  0  0  0  0  0  0  0  0
  127.1110  169.3450  167.8660 C   0  0  0  0  0  0  0  0  0  0  0  0
  124.9880  172.4830  167.7700 C   0  0  0  0  0  0  0  0  0  0  0  0
  123.7740  174.9140  169.6950 C   0  0  0  0  0  0  0  0  0  0  0  0
  123.0580  175.6600  170.6240 C   0  0  0  0  0  0  0  0  0  0  0  0
  125.4830  175.6560  170.8730 C   0  0  0  0  0  0  0  0  0  0  0  0
  126.7520  176.3290  173.8550 C   0  0  0  0  0  0  0  0  0  0  0  0
  127.1270  174.9410  174.2840 C   0  0  0  0  0  0  0  0  0  0  0  0
  127.7660  176.1460  174.9490 C   0  0  0  0  0  0  0  0  0  0  0  0
  123.2670  174.1280  168.4860 C   0  0  0  0  0  0  0  0  0  0  0  0
  121.8250  174.2790  168.0720 C   0  0  0  0  0  0  0  0  0  0  0  0
  122.9100  174.9320  167.2580 C   0  0  0  0  0  0  0  0  0  0  0  0
  127.4350  175.1550  170.7900 H   0  0  0  0  0  0  0  0  0  0  0  0
  127.7760  163.4530  169.2720 H   0  0  0  0  0  0  0  0  0  0  0  0
  124.6270  166.1520  168.6520 H   0  0  0  0  0  0  0  0  0  0  0  0
  123.2080  172.0210  168.5840 H   0  0  0  0  0  0  0  0  0  0  0  0
  124.1800  168.1680  169.0210 H   0  0  0  0  0  0  0  0  0  0  0  0
  127.4230  171.3740  167.2260 H   0  0  0  0  0  0  0  0  0  0  0  0
  128.1220  169.0380  167.6440 H   0  0  0  0  0  0  0  0  0  0  0  0
  121.9830  175.7590  170.6510 H   0  0  0  0  0  0  0  0  0  0  0  0
  125.7670  176.6820  174.1610 H   0  0  0  0  0  0  0  0  0  0  0  0
  130.4040  166.8420  170.1960 H   0  0  0  0  0  0  0  0  0  0  0  0
  130.4060  167.0060  168.4220 H   0  0  0  0  0  0  0  0  0  0  0  0
  132.1320  165.2280  168.2860 H   0  0  0  0  0  0  0  0  0  0  0  0
  132.6850  166.6320  169.2300 H   0  0  0  0  0  0  0  0  0  0  0  0
  132.1630  165.1490  170.0640 H   0  0  0  0  0  0  0  0  0  0  0  0
  126.4130  174.3290  174.8350 H   0  0  0  0  0  0  0  0  0  0  0  0
  127.7690  174.3970  173.5910 H   0  0  0  0  0  0  0  0  0  0  0  0
  128.8150  176.3780  174.7660 H   0  0  0  0  0  0  0  0  0  0  0  0
  127.4100  176.3660  175.9550 H   0  0  0  0  0  0  0  0  0  0  0  0
  121.2820  173.4240  167.6690 H   0  0  0  0  0  0  0  0  0  0  0  0
  121.2340  174.9570  168.6870 H   0  0  0  0  0  0  0  0  0  0  0  0
  123.0190  176.0160  167.2660 H   0  0  0  0  0  0  0  0  0  0  0  0
  123.1310  174.4500  166.3060 H   0  0  0  0  0  0  0  0  0  0  0  0
  1  3  1  0  0  0  0
  1  5  4  0  0  0  0
  1  2  4  0  0  0  0
  2 12  4  0  0  0  0
  5  6  4  0  0  0  0
  5 35  1  0  0  0  0
  6  9  4  0  0  0  0
  9 36  1  0  0  0  0
 10 20  4  0  0  0  0
 10 21  4  0  0  0  0
  8 11  2  0  0  0  0
  9 12  4  0  0  0  0
 12 19  1  0  0  0  0
 13 37  1  0  0  0  0
  8 14  2  0  0  0  0
  3 15  1  0  0  0  0
 15 17  1  0  0  0  0
 15 43  1  0  0  0  0
 15 44  1  0  0  0  0
 17 45  1  0  0  0  0
 17 46  1  0  0  0  0
 17 47  1  0  0  0  0
  8 18  1  0  0  0  0
 18 34  1  0  0  0  0
 19 20  4  0  0  0  0
 19 23  4  0  0  0  0
 20 38  1  0  0  0  0
 21 22  4  0  0  0  0
 22 23  4  0  0  0  0
 22 39  1  0  0  0  0
 23 40  1  0  0  0  0
  7 24  2  0  0  0  0
 13 24  1  0  0  0  0
 21 24  1  0  0  0  0
 16 25  4  0  0  0  0
 25 26  4  0  0  0  0
 25 31  1  0  0  0  0
  4 26  4  0  0  0  0
 26 41  1  0  0  0  0
  4 27  4  0  0  0  0
 16 27  4  0  0  0  0
 18 27  1  0  0  0  0
  8 28  1  0  0  0  0
 28 30  1  0  0  0  0
 28 42  1  0  0  0  0
 28 29  1  0  0  0  0
 29 30  1  0  0  0  0
 29 48  1  0  0  0  0
 29 49  1  0  0  0  0
 30 50  1  0  0  0  0
 30 51  1  0  0  0  0
 13 31  1  0  0  0  0
 31 32  1  0  0  0  0
 32 33  1  0  0  0  0
 32 52  1  0  0  0  0
 32 53  1  0  0  0  0
 31 33  1  0  0  0  0
 33 54  1  0  0  0  0
 33 55  1  0  0  0  0
M  END
$$$$
