8TZ7
  PyMOL3.1          3D                             0

 42 43  0  0  0  0  0  0  0  0999 V2000
  149.4100  150.7770  144.4370 C   0  0  0  0  0  0  0  0  0  0  0  0
  149.1120  149.7690  143.3310 C   0  0  0  0  0  0  0  0  0  0  0  0
  147.8800  148.9780  143.6410 C   0  0  0  0  0  0  0  0  0  0  0  0
  150.3220  148.8440  143.0550 C   0  0  0  0  0  0  0  0  0  0  0  0
  150.6110  148.0150  143.8100 O   0  0  0  0  0  0  0  0  0  0  0  0
  151.0980  149.0260  141.8100 O   0  0  0  0  0  0  0  0  0  0  0  0
  151.9750  147.9170  141.4810 C   0  0  0  0  0  0  0  0  0  0  0  0
  152.2140  147.9390  139.9710 C   0  0  0  0  0  0  0  0  0  0  0  0
  152.9960  149.2190  139.5670 C   0  0  0  0  0  0  0  0  0  0  0  0
  152.5680  149.4540  138.0470 C   0  0  0  0  0  0  0  0  0  0  0  0
  151.4170  148.8860  137.9060 C   0  0  0  0  0  0  0  0  0  0  0  0
  151.0760  148.0520  139.3260 O   0  0  0  0  0  0  0  0  0  0  0  0
  150.3980  149.8810  137.6720 N   0  0  0  0  0  0  0  0  0  0  0  0
  149.6430  150.4120  138.8010 C   0  0  0  0  0  0  0  0  0  0  0  0
  148.5850  151.4370  138.5780 C   0  0  0  0  0  0  0  0  0  0  0  0
  148.2990  151.9190  137.1870 C   0  0  0  0  0  0  0  0  0  0  0  0
  149.0460  151.3910  136.0660 N   0  0  0  0  0  0  0  0  0  0  0  0
  150.1090  150.3610  136.2930 C   0  0  0  0  0  0  0  0  0  0  0  0
  150.7090  149.9380  135.3880 O   0  0  0  0  0  0  0  0  0  0  0  0
  147.2760  152.9080  136.9730 N   0  0  0  0  0  0  0  0  0  0  0  0
  146.5360  153.4280  138.0900 O   0  0  0  0  0  0  0  0  0  0  0  0
  153.5380  148.8130  137.1630 O   0  0  0  0  0  0  0  0  0  0  0  0
  154.2980  149.0190  139.6570 O   0  0  0  0  0  0  0  0  0  0  0  0
  148.6250  151.4850  144.4880 H   0  0  0  0  0  0  0  0  0  0  0  0
  150.3250  151.2750  144.2240 H   0  0  0  0  0  0  0  0  0  0  0  0
  149.4950  150.2360  145.4280 H   0  0  0  0  0  0  0  0  0  0  0  0
  148.9210  150.3400  142.4020 H   0  0  0  0  0  0  0  0  0  0  0  0
  147.7320  148.2150  142.8710 H   0  0  0  0  0  0  0  0  0  0  0  0
  146.9900  149.6630  143.6660 H   0  0  0  0  0  0  0  0  0  0  0  0
  147.9960  148.4970  144.6100 H   0  0  0  0  0  0  0  0  0  0  0  0
  151.5090  146.9720  141.7740 H   0  0  0  0  0  0  0  0  0  0  0  0
  152.8980  148.0350  141.9920 H   0  0  0  0  0  0  0  0  0  0  0  0
  152.7390  147.0580  139.6450 H   0  0  0  0  0  0  0  0  0  0  0  0
  152.6790  150.0820  140.2110 H   0  0  0  0  0  0  0  0  0  0  0  0
  152.4820  150.5470  137.8290 H   0  0  0  0  0  0  0  0  0  0  0  0
  151.4550  148.1520  137.0280 H   0  0  0  0  0  0  0  0  0  0  0  0
  149.8530  150.0640  139.7990 H   0  0  0  0  0  0  0  0  0  0  0  0
  148.0140  151.8410  139.4350 H   0  0  0  0  0  0  0  0  0  0  0  0
  147.0780  153.2380  136.0400 H   0  0  0  0  0  0  0  0  0  0  0  0
  145.6550  153.2350  137.9860 H   0  0  0  0  0  0  0  0  0  0  0  0
  154.0020  149.4510  136.6960 H   0  0  0  0  0  0  0  0  0  0  0  0
  154.7740  149.7810  139.2720 H   0  0  0  0  0  0  0  0  0  0  0  0
  1  2  1  0  0  0  0
  2  3  1  0  0  0  0
  2  4  1  0  0  0  0
  4  5  2  0  0  0  0
  4  6  1  0  0  0  0
  6  7  1  0  0  0  0
  7  8  1  0  0  0  0
  8  9  1  0  0  0  0
  9 10  1  0  0  0  0
 10 11  1  0  0  0  0
  8 12  1  0  0  0  0
 11 12  1  0  0  0  0
 11 13  1  0  0  0  0
 13 14  1  0  0  0  0
 14 15  2  0  0  0  0
 15 16  1  0  0  0  0
 16 17  2  0  0  0  0
 13 18  1  0  0  0  0
 17 18  1  0  0  0  0
 18 19  2  0  0  0  0
 16 20  1  0  0  0  0
 20 21  1  0  0  0  0
 10 22  1  0  0  0  0
  9 23  1  0  0  0  0
  1 24  1  0  0  0  0
  1 25  1  0  0  0  0
  1 26  1  0  0  0  0
  2 27  1  0  0  0  0
  3 28  1  0  0  0  0
  3 29  1  0  0  0  0
  3 30  1  0  0  0  0
  7 31  1  0  0  0  0
  7 32  1  0  0  0  0
  8 33  1  0  0  0  0
  9 34  1  0  0  0  0
 10 35  1  0  0  0  0
 11 36  1  0  0  0  0
 14 37  1  0  0  0  0
 15 38  1  0  0  0  0
 20 39  1  0  0  0  0
 21 40  1  0  0  0  0
 22 41  1  0  0  0  0
 23 42  1  0  0  0  0
M  END
$$$$
