8TZ7
  PyMOL3.1          3D                             0

 42 43  0  0  0  0  0  0  0  0999 V2000
  121.6430  141.6180  144.3500 C   0  0  0  0  0  0  0  0  0  0  0  0
  122.6600  141.8690  143.2390 C   0  0  0  0  0  0  0  0  0  0  0  0
  123.9640  141.2010  143.5420 C   0  0  0  0  0  0  0  0  0  0  0  0
  122.8490  143.3800  142.9650 C   0  0  0  0  0  0  0  0  0  0  0  0
  123.4230  144.0460  143.7180 O   0  0  0  0  0  0  0  0  0  0  0  0
  122.2940  143.9620  141.7230 O   0  0  0  0  0  0  0  0  0  0  0  0
  122.8110  145.2770  141.3940 C   0  0  0  0  0  0  0  0  0  0  0  0
  122.6630  145.4760  139.8850 C   0  0  0  0  0  0  0  0  0  0  0  0
  121.1620  145.5080  139.4880 C   0  0  0  0  0  0  0  0  0  0  0  0
  121.1660  145.0230  137.9680 C   0  0  0  0  0  0  0  0  0  0  0  0
  122.2350  144.3140  137.8200 C   0  0  0  0  0  0  0  0  0  0  0  0
  123.1350  144.4370  139.2350 O   0  0  0  0  0  0  0  0  0  0  0  0
  121.8870  142.9330  137.5860 N   0  0  0  0  0  0  0  0  0  0  0  0
  121.8130  142.0120  138.7140 C   0  0  0  0  0  0  0  0  0  0  0  0
  121.4580  140.5820  138.4900 C   0  0  0  0  0  0  0  0  0  0  0  0
  121.1790  140.0940  137.1000 C   0  0  0  0  0  0  0  0  0  0  0  0
  121.2530  141.0070  135.9800 N   0  0  0  0  0  0  0  0  0  0  0  0
  121.6100  142.4440  136.2080 C   0  0  0  0  0  0  0  0  0  0  0  0
  121.6700  143.1770  135.3040 O   0  0  0  0  0  0  0  0  0  0  0  0
  120.8370  138.7140  136.8860 N   0  0  0  0  0  0  0  0  0  0  0  0
  120.7650  137.8110  138.0020 O   0  0  0  0  0  0  0  0  0  0  0  0
  121.2280  146.1850  137.0860 O   0  0  0  0  0  0  0  0  0  0  0  0
  120.6810  146.7340  139.5830 O   0  0  0  0  0  0  0  0  0  0  0  0
  121.4290  140.5820  144.4040 H   0  0  0  0  0  0  0  0  0  0  0  0
  120.7500  142.1550  144.1410 H   0  0  0  0  0  0  0  0  0  0  0  0
  122.0720  141.9660  145.3390 H   0  0  0  0  0  0  0  0  0  0  0  0
  122.2570  141.4180  142.3120 H   0  0  0  0  0  0  0  0  0  0  0  0
  124.6940  141.4590  142.7690 H   0  0  0  0  0  0  0  0  0  0  0  0
  123.8200  140.0870  143.5660 H   0  0  0  0  0  0  0  0  0  0  0  0
  124.3260  141.5420  144.5090 H   0  0  0  0  0  0  0  0  0  0  0  0
  123.8640  145.3500  141.6820 H   0  0  0  0  0  0  0  0  0  0  0  0
  122.2460  146.0160  141.9080 H   0  0  0  0  0  0  0  0  0  0  0  0
  123.1600  146.3730  139.5580 H   0  0  0  0  0  0  0  0  0  0  0  0
  120.5790  144.7990  140.1340 H   0  0  0  0  0  0  0  0  0  0  0  0
  120.2620  144.4000  137.7540 H   0  0  0  0  0  0  0  0  0  0  0  0
  122.8480  144.7170  136.9400 H   0  0  0  0  0  0  0  0  0  0  0  0
  122.0150  142.3660  139.7110 H   0  0  0  0  0  0  0  0  0  0  0  0
  121.4010  139.8840  139.3460 H   0  0  0  0  0  0  0  0  0  0  0  0
  120.6470  138.3780  135.9530 H   0  0  0  0  0  0  0  0  0  0  0  0
  121.3880  137.1560  137.9030 H   0  0  0  0  0  0  0  0  0  0  0  0
  120.4400  146.2680  136.6250 H   0  0  0  0  0  0  0  0  0  0  0  0
  119.7800  146.7640  139.2050 H   0  0  0  0  0  0  0  0  0  0  0  0
  1  2  1  0  0  0  0
  2  3  1  0  0  0  0
  2  4  1  0  0  0  0
  4  5  2  0  0  0  0
  4  6  1  0  0  0  0
  6  7  1  0  0  0  0
  7  8  1  0  0  0  0
  8  9  1  0  0  0  0
  9 10  1  0  0  0  0
 10 11  1  0  0  0  0
  8 12  1  0  0  0  0
 11 12  1  0  0  0  0
 11 13  1  0  0  0  0
 13 14  1  0  0  0  0
 14 15  2  0  0  0  0
 15 16  1  0  0  0  0
 16 17  2  0  0  0  0
 13 18  1  0  0  0  0
 17 18  1  0  0  0  0
 18 19  2  0  0  0  0
 16 20  1  0  0  0  0
 20 21  1  0  0  0  0
 10 22  1  0  0  0  0
  9 23  1  0  0  0  0
  1 24  1  0  0  0  0
  1 25  1  0  0  0  0
  1 26  1  0  0  0  0
  2 27  1  0  0  0  0
  3 28  1  0  0  0  0
  3 29  1  0  0  0  0
  3 30  1  0  0  0  0
  7 31  1  0  0  0  0
  7 32  1  0  0  0  0
  8 33  1  0  0  0  0
  9 34  1  0  0  0  0
 10 35  1  0  0  0  0
 11 36  1  0  0  0  0
 14 37  1  0  0  0  0
 15 38  1  0  0  0  0
 20 39  1  0  0  0  0
 21 40  1  0  0  0  0
 22 41  1  0  0  0  0
 23 42  1  0  0  0  0
M  END
$$$$
