7KNW
  PyMOL3.1          3D                             0

 22 24  0  0  0  0  0  0  0  0999 V2000
  -66.7240   52.4850  -71.2330 N   0  0  0  0  0  0  0  0  0  0  0  0
  -67.0550   51.3040  -73.9060 C   0  0  0  0  0  0  0  0  0  0  0  0
  -65.0610   50.9960  -75.0600 O   0  0  0  0  0  0  0  0  0  0  0  0
  -70.8760   51.2080  -74.9160 Cl  0  0  0  0  0  0  0  0  0  0  0  0
  -68.4340   51.3380  -73.8690 C   0  0  0  0  0  0  0  0  0  0  0  0
  -68.6450   52.5910  -68.0670 N   0  0  0  0  0  0  0  0  0  0  0  0
  -64.8730   52.0540  -72.8230 O   0  0  0  0  0  0  0  0  0  0  0  0
  -66.4020   51.0350  -75.0920 C   0  0  0  0  0  0  0  0  0  0  0  0
  -67.3360   54.1420  -68.8690 N   0  0  0  0  0  0  0  0  0  0  0  0
  -66.0100   50.2080  -71.8720 O   0  0  0  0  0  0  0  0  0  0  0  0
  -69.1700   51.1420  -75.0250 C   0  0  0  0  0  0  0  0  0  0  0  0
  -68.6560   53.5370  -67.2390 N   0  0  0  0  0  0  0  0  0  0  0  0
  -67.1320   50.8390  -76.2600 C   0  0  0  0  0  0  0  0  0  0  0  0
  -68.5250   50.8850  -76.2300 C   0  0  0  0  0  0  0  0  0  0  0  0
  -64.2720   50.2180  -75.9580 C   0  0  0  0  0  0  0  0  0  0  0  0
  -67.8440   52.9180  -69.0980 C   0  0  0  0  0  0  0  0  0  0  0  0
  -67.6320   52.0640  -70.1980 C   0  0  0  0  0  0  0  0  0  0  0  0
  -69.3110   51.4130  -67.9870 C   0  0  0  0  0  0  0  0  0  0  0  0
  -68.3170   50.8240  -70.1370 C   0  0  0  0  0  0  0  0  0  0  0  0
  -69.1560   50.5140  -69.0440 C   0  0  0  0  0  0  0  0  0  0  0  0
  -67.8550   54.5270  -67.6890 C   0  0  0  0  0  0  0  0  0  0  0  0
  -66.1450   51.5340  -72.4410 S   0  0  0  0  0  0  0  0  0  0  0  0
  2  5  2  0  0  0  0
  2  8  1  0  0  0  0
  3  8  1  0  0  0  0
  4 11  1  0  0  0  0
  5 11  1  0  0  0  0
  6 12  1  0  0  0  0
  8 13  2  0  0  0  0
 11 14  2  0  0  0  0
 13 14  1  0  0  0  0
  3 15  1  0  0  0  0
  6 16  1  0  0  0  0
  9 16  2  0  0  0  0
  1 17  1  0  0  0  0
 16 17  1  0  0  0  0
  6 18  1  0  0  0  0
 17 19  2  0  0  0  0
 18 20  2  0  0  0  0
 19 20  1  0  0  0  0
  9 21  1  0  0  0  0
 12 21  2  0  0  0  0
  1 22  1  0  0  0  0
  2 22  1  0  0  0  0
  7 22  2  0  0  0  0
 10 22  2  0  0  0  0
M  END
$$$$
