7KNW
  PyMOL3.1          3D                             0

 22 24  0  0  0  0  0  0  0  0999 V2000
  -53.8990   -3.1110  -73.3990 N   0  0  0  0  0  0  0  0  0  0  0  0
  -54.1060   -0.4900  -74.5460 C   0  0  0  0  0  0  0  0  0  0  0  0
  -52.1160    0.8110  -74.6820 O   0  0  0  0  0  0  0  0  0  0  0  0
  -57.9760    0.4420  -74.7500 Cl  0  0  0  0  0  0  0  0  0  0  0  0
  -55.4880   -0.5480  -74.5620 C   0  0  0  0  0  0  0  0  0  0  0  0
  -56.1610   -5.9940  -73.3100 N   0  0  0  0  0  0  0  0  0  0  0  0
  -51.9390   -1.6220  -73.7080 O   0  0  0  0  0  0  0  0  0  0  0  0
  -53.4750    0.7400  -74.7130 C   0  0  0  0  0  0  0  0  0  0  0  0
  -54.8620   -5.2810  -71.7040 N   0  0  0  0  0  0  0  0  0  0  0  0
  -52.9310   -2.5440  -75.6210 O   0  0  0  0  0  0  0  0  0  0  0  0
  -56.2660    0.5960  -74.7310 C   0  0  0  0  0  0  0  0  0  0  0  0
  -56.3380   -6.7750  -72.3400 N   0  0  0  0  0  0  0  0  0  0  0  0
  -54.2580    1.8920  -74.8750 C   0  0  0  0  0  0  0  0  0  0  0  0
  -55.6520    1.8300  -74.8870 C   0  0  0  0  0  0  0  0  0  0  0  0
  -51.3810    1.6930  -75.5280 C   0  0  0  0  0  0  0  0  0  0  0  0
  -55.2690   -5.0490  -72.9600 C   0  0  0  0  0  0  0  0  0  0  0  0
  -54.8770   -4.0400  -73.8440 C   0  0  0  0  0  0  0  0  0  0  0  0
  -56.7580   -6.0470  -74.5340 C   0  0  0  0  0  0  0  0  0  0  0  0
  -55.4770   -4.0650  -75.1260 C   0  0  0  0  0  0  0  0  0  0  0  0
  -56.4250   -5.0560  -75.4650 C   0  0  0  0  0  0  0  0  0  0  0  0
  -55.5470   -6.3780  -71.3160 C   0  0  0  0  0  0  0  0  0  0  0  0
  -53.1960   -1.9670  -74.3260 S   0  0  0  0  0  0  0  0  0  0  0  0
  2  5  2  0  0  0  0
  2  8  1  0  0  0  0
  3  8  1  0  0  0  0
  4 11  1  0  0  0  0
  5 11  1  0  0  0  0
  6 12  1  0  0  0  0
  8 13  2  0  0  0  0
 11 14  2  0  0  0  0
 13 14  1  0  0  0  0
  3 15  1  0  0  0  0
  6 16  1  0  0  0  0
  9 16  2  0  0  0  0
  1 17  1  0  0  0  0
 16 17  1  0  0  0  0
  6 18  1  0  0  0  0
 17 19  2  0  0  0  0
 18 20  2  0  0  0  0
 19 20  1  0  0  0  0
  9 21  1  0  0  0  0
 12 21  2  0  0  0  0
  1 22  1  0  0  0  0
  2 22  1  0  0  0  0
  7 22  2  0  0  0  0
 10 22  2  0  0  0  0
M  END
$$$$
