8CGP
  PyMOL3.1          3D                             0

 22 24  0  0  0  0  0  0  0  0999 V2000
   -8.8670  -41.4900   15.9380 Cl  0  0  0  0  0  0  0  0  0  0  0  0
   -4.0260  -38.4860   12.7880 O   0  0  0  0  0  0  0  0  0  0  0  0
   -5.3660  -38.2030   12.2510 S   0  0  0  0  0  0  0  0  0  0  0  0
   -5.5080  -38.7630   10.6310 N   0  0  0  0  0  0  0  0  0  0  0  0
   -5.9110  -40.1420   10.3790 C   0  0  0  0  0  0  0  0  0  0  0  0
   -5.2740  -41.1340   11.0960 C   0  0  0  0  0  0  0  0  0  0  0  0
   -5.6170  -42.4540   10.9130 C   0  0  0  0  0  0  0  0  0  0  0  0
   -4.8830  -43.5070   11.7330 C   0  0  0  0  0  0  0  0  0  0  0  0
   -4.6920  -44.7890   11.3900 N   0  0  0  0  0  0  0  0  0  0  0  0
   -4.0020  -45.3920   12.3890 N   0  0  0  0  0  0  0  0  0  0  0  0
   -3.7680  -44.4840   13.3390 N   0  0  0  0  0  0  0  0  0  0  0  0
   -4.3150  -43.3080   12.9350 N   0  0  0  0  0  0  0  0  0  0  0  0
   -6.6060  -42.7930   10.0010 C   0  0  0  0  0  0  0  0  0  0  0  0
   -7.2520  -41.8010    9.2750 C   0  0  0  0  0  0  0  0  0  0  0  0
   -6.9070  -40.4720    9.4620 C   0  0  0  0  0  0  0  0  0  0  0  0
   -6.7190  -38.9020   13.2670 C   0  0  0  0  0  0  0  0  0  0  0  0
   -8.0190  -38.3200   13.3420 C   0  0  0  0  0  0  0  0  0  0  0  0
   -8.9060  -39.1380   14.2620 C   0  0  0  0  0  0  0  0  0  0  0  0
   -8.2040  -40.2660   14.8020 C   0  0  0  0  0  0  0  0  0  0  0  0
   -6.6980  -40.2340   14.2040 S   0  0  0  0  0  0  0  0  0  0  0  0
   -5.4050  -36.7340   12.3190 O   0  0  0  0  0  0  0  0  0  0  0  0
  -10.7400  -38.6430   14.6050 Br  0  0  0  0  0  0  0  0  0  0  0  0
  2  3  2  0  0  0  0
  3  4  1  0  0  0  0
  4  5  1  0  0  0  0
  5  6  1  0  0  0  0
  6  7  2  0  0  0  0
  7  8  1  0  0  0  0
  8  9  1  0  0  0  0
  9 10  1  0  0  0  0
 10 11  2  0  0  0  0
  8 12  2  0  0  0  0
 11 12  1  0  0  0  0
  7 13  1  0  0  0  0
 13 14  2  0  0  0  0
  5 15  2  0  0  0  0
 14 15  1  0  0  0  0
  3 16  1  0  0  0  0
 16 17  2  0  0  0  0
 17 18  1  0  0  0  0
  1 19  1  0  0  0  0
 18 19  2  0  0  0  0
 16 20  1  0  0  0  0
 19 20  1  0  0  0  0
  3 21  2  0  0  0  0
 18 22  1  0  0  0  0
M  END
$$$$
