6QU4
  PyMOL3.1          3D                             0

 96104  0  0  0  0  0  0  0  0999 V2000
  -19.1830   53.5070  -38.7480 Cl  0  0  0  0  0  0  0  0  0  0  0  0
  -18.5880   53.7040  -41.8470 Cl  0  0  0  0  0  0  0  0  0  0  0  0
  -19.4120   49.7390  -41.3290 C   0  0  0  0  0  0  0  0  0  0  0  0
  -19.0840   50.9680  -41.9040 C   0  0  0  0  0  0  0  0  0  0  0  0
  -19.0180   52.1090  -41.1140 C   0  0  0  0  0  0  0  0  0  0  0  0
  -19.2860   52.0230  -39.7520 C   0  0  0  0  0  0  0  0  0  0  0  0
  -19.6200   50.8110  -39.1590 C   0  0  0  0  0  0  0  0  0  0  0  0
  -19.6830   49.6650  -39.9510 C   0  0  0  0  0  0  0  0  0  0  0  0
  -19.5080   48.4990  -42.1970 C   0  0  0  0  0  0  0  0  0  0  0  0
  -20.6030   48.7340  -43.1540 N   0  0  0  0  0  0  0  0  0  0  0  0
  -21.9140   48.3750  -43.0000 C   0  0  0  0  0  0  0  0  0  0  0  0
  -22.5940   48.8510  -44.2060 C   0  0  0  0  0  0  0  0  0  0  0  0
  -21.6190   49.4830  -45.0040 C   0  0  0  0  0  0  0  0  0  0  0  0
  -20.4230   49.3890  -44.3300 C   0  0  0  0  0  0  0  0  0  0  0  0
  -24.0440   48.6070  -44.3530 C   0  0  0  0  0  0  0  0  0  0  0  0
  -24.7270   47.9300  -43.3240 N   0  0  0  0  0  0  0  0  0  0  0  0
  -24.0550   47.5030  -42.2330 C   0  0  0  0  0  0  0  0  0  0  0  0
  -22.6780   47.7070  -42.0450 C   0  0  0  0  0  0  0  0  0  0  0  0
  -24.6250   49.0120  -45.3770 O   0  0  0  0  0  0  0  0  0  0  0  0
  -26.1740   47.6700  -43.4310 C   0  0  0  0  0  0  0  0  0  0  0  0
  -26.9940   48.6740  -42.6140 C   0  0  0  0  0  0  0  0  0  0  0  0
  -26.9930   50.0420  -43.1770 N   0  0  0  0  0  0  0  0  0  0  0  0
  -27.6770   50.1090  -44.4830 C   0  0  0  0  0  0  0  0  0  0  0  0
  -27.6730   50.9630  -42.2470 C   0  0  0  0  0  0  0  0  0  0  0  0
   10.2510   35.3420  -23.7070 Cl  0  0  0  0  0  0  0  0  0  0  0  0
   12.4190   35.7210  -25.8840 Cl  0  0  0  0  0  0  0  0  0  0  0  0
   12.0560   39.5120  -24.2620 C   0  0  0  0  0  0  0  0  0  0  0  0
   12.4840   38.4400  -25.0580 C   0  0  0  0  0  0  0  0  0  0  0  0
   11.9290   37.1600  -24.8900 C   0  0  0  0  0  0  0  0  0  0  0  0
   10.9520   36.9720  -23.9290 C   0  0  0  0  0  0  0  0  0  0  0  0
   10.5200   38.0210  -23.1370 C   0  0  0  0  0  0  0  0  0  0  0  0
   11.0740   39.2870  -23.3020 C   0  0  0  0  0  0  0  0  0  0  0  0
   12.6370   40.9080  -24.3920 C   0  0  0  0  0  0  0  0  0  0  0  0
   14.0040   40.8480  -23.8560 N   0  0  0  0  0  0  0  0  0  0  0  0
   14.4200   41.1460  -22.5900 C   0  0  0  0  0  0  0  0  0  0  0  0
   15.8680   40.8920  -22.5930 C   0  0  0  0  0  0  0  0  0  0  0  0
   16.2150   40.4460  -23.8880 C   0  0  0  0  0  0  0  0  0  0  0  0
   15.0490   40.4330  -24.6210 C   0  0  0  0  0  0  0  0  0  0  0  0
   16.6310   41.1300  -21.3450 C   0  0  0  0  0  0  0  0  0  0  0  0
   15.9480   41.5890  -20.2020 N   0  0  0  0  0  0  0  0  0  0  0  0
   14.6130   41.8120  -20.2440 C   0  0  0  0  0  0  0  0  0  0  0  0
   13.8390   41.6020  -21.4020 C   0  0  0  0  0  0  0  0  0  0  0  0
   17.8580   40.9240  -21.3180 O   0  0  0  0  0  0  0  0  0  0  0  0
   16.7090   41.8180  -18.9650 C   0  0  0  0  0  0  0  0  0  0  0  0
   16.7360   40.5450  -18.1130 C   0  0  0  0  0  0  0  0  0  0  0  0
   17.6660   39.5100  -18.6170 N   0  0  0  0  0  0  0  0  0  0  0  0
   19.0830   39.9110  -18.4750 C   0  0  0  0  0  0  0  0  0  0  0  0
   17.4510   38.2610  -17.8670 C   0  0  0  0  0  0  0  0  0  0  0  0
  -18.4670   53.1290   16.1120 Cl  0  0  0  0  0  0  0  0  0  0  0  0
  -19.1280   53.1270   19.1660 Cl  0  0  0  0  0  0  0  0  0  0  0  0
  -16.8840   49.7480   18.7210 C   0  0  0  0  0  0  0  0  0  0  0  0
  -17.6540   50.7730   19.2730 C   0  0  0  0  0  0  0  0  0  0  0  0
  -18.1330   51.8000   18.4690 C   0  0  0  0  0  0  0  0  0  0  0  0
  -17.8410   51.7980   17.1150 C   0  0  0  0  0  0  0  0  0  0  0  0
  -17.0800   50.7890   16.5460 C   0  0  0  0  0  0  0  0  0  0  0  0
  -16.5960   49.7600   17.3550 C   0  0  0  0  0  0  0  0  0  0  0  0
  -16.3440   48.6480   19.6100 C   0  0  0  0  0  0  0  0  0  0  0  0
  -15.3580   49.2660   20.5170 N   0  0  0  0  0  0  0  0  0  0  0  0
  -14.0150   49.3070   20.3280 C   0  0  0  0  0  0  0  0  0  0  0  0
  -13.4820   50.0370   21.4830 C   0  0  0  0  0  0  0  0  0  0  0  0
  -14.5820   50.3910   22.2910 C   0  0  0  0  0  0  0  0  0  0  0  0
  -15.7050   49.9000   21.6700 C   0  0  0  0  0  0  0  0  0  0  0  0
  -12.0180   50.2430   21.5760 C   0  0  0  0  0  0  0  0  0  0  0  0
  -11.2050   49.7340   20.5350 N   0  0  0  0  0  0  0  0  0  0  0  0
  -11.7510   49.0650   19.4980 C   0  0  0  0  0  0  0  0  0  0  0  0
  -13.1280   48.8400   19.3680 C   0  0  0  0  0  0  0  0  0  0  0  0
  -11.5350   50.8660   22.5470 O   0  0  0  0  0  0  0  0  0  0  0  0
   -9.7440   49.9120   20.5870 C   0  0  0  0  0  0  0  0  0  0  0  0
   -9.2760   51.0650   19.6950 C   0  0  0  0  0  0  0  0  0  0  0  0
   -9.7610   52.3900   20.1340 N   0  0  0  0  0  0  0  0  0  0  0  0
   -9.1880   52.7870   21.4400 C   0  0  0  0  0  0  0  0  0  0  0  0
   -9.4690   53.3910   19.0830 C   0  0  0  0  0  0  0  0  0  0  0  0
  -37.7580   24.5230    0.8960 Cl  0  0  0  0  0  0  0  0  0  0  0  0
  -39.9080   24.0170    3.0080 Cl  0  0  0  0  0  0  0  0  0  0  0  0
  -41.0440   27.6320    1.4650 C   0  0  0  0  0  0  0  0  0  0  0  0
  -41.0080   26.4670    2.2320 C   0  0  0  0  0  0  0  0  0  0  0  0
  -40.0010   25.5310    2.0420 C   0  0  0  0  0  0  0  0  0  0  0  0
  -39.0350   25.7600    1.0910 C   0  0  0  0  0  0  0  0  0  0  0  0
  -39.0550   26.9130    0.3220 C   0  0  0  0  0  0  0  0  0  0  0  0
  -40.0660   27.8490    0.5080 C   0  0  0  0  0  0  0  0  0  0  0  0
  -42.1610   28.6390    1.6540 C   0  0  0  0  0  0  0  0  0  0  0  0
  -43.3750   27.9900    1.1440 N   0  0  0  0  0  0  0  0  0  0  0  0
  -43.8800   28.1580   -0.0990 C   0  0  0  0  0  0  0  0  0  0  0  0
  -45.0620   27.2960   -0.1540 C   0  0  0  0  0  0  0  0  0  0  0  0
  -45.1650   26.6500    1.1030 C   0  0  0  0  0  0  0  0  0  0  0  0
  -44.1170   27.1030    1.8650 C   0  0  0  0  0  0  0  0  0  0  0  0
  -45.8420   27.2750   -1.4150 C   0  0  0  0  0  0  0  0  0  0  0  0
  -45.4110   28.0790   -2.4950 N   0  0  0  0  0  0  0  0  0  0  0  0
  -44.3170   28.8570   -2.3830 C   0  0  0  0  0  0  0  0  0  0  0  0
  -43.5430   28.9140   -1.2180 C   0  0  0  0  0  0  0  0  0  0  0  0
  -46.8530   26.5540   -1.5020 O   0  0  0  0  0  0  0  0  0  0  0  0
  -46.1550   28.0870   -3.7600 C   0  0  0  0  0  0  0  0  0  0  0  0
  -45.5080   27.1590   -4.7890 C   0  0  0  0  0  0  0  0  0  0  0  0
  -45.4260   25.7500   -4.3520 N   0  0  0  0  0  0  0  0  0  0  0  0
  -46.7410   25.0760   -4.3250 C   0  0  0  0  0  0  0  0  0  0  0  0
  -44.5120   25.0110   -5.2510 C   0  0  0  0  0  0  0  0  0  0  0  0
  3  4  2  0  0  0  0
  2  5  1  0  0  0  0
  4  5  1  0  0  0  0
  1  6  1  0  0  0  0
  5  6  2  0  0  0  0
  6  7  1  0  0  0  0
  3  8  1  0  0  0  0
  7  8  2  0  0  0  0
  3  9  1  0  0  0  0
  9 10  1  0  0  0  0
 10 11  1  0  0  0  0
 11 12  2  0  0  0  0
 12 13  1  0  0  0  0
 10 14  1  0  0  0  0
 13 14  2  0  0  0  0
 12 15  1  0  0  0  0
 15 16  1  0  0  0  0
 16 17  1  0  0  0  0
 11 18  1  0  0  0  0
 17 18  2  0  0  0  0
 15 19  2  0  0  0  0
 16 20  1  0  0  0  0
 20 21  1  0  0  0  0
 21 22  1  0  0  0  0
 22 23  1  0  0  0  0
 22 24  1  0  0  0  0
 27 28  2  0  0  0  0
 26 29  1  0  0  0  0
 28 29  1  0  0  0  0
 25 30  1  0  0  0  0
 29 30  2  0  0  0  0
 30 31  1  0  0  0  0
 27 32  1  0  0  0  0
 31 32  2  0  0  0  0
 27 33  1  0  0  0  0
 33 34  1  0  0  0  0
 34 35  1  0  0  0  0
 35 36  2  0  0  0  0
 36 37  1  0  0  0  0
 34 38  1  0  0  0  0
 37 38  2  0  0  0  0
 36 39  1  0  0  0  0
 39 40  1  0  0  0  0
 40 41  1  0  0  0  0
 35 42  1  0  0  0  0
 41 42  2  0  0  0  0
 39 43  2  0  0  0  0
 40 44  1  0  0  0  0
 44 45  1  0  0  0  0
 45 46  1  0  0  0  0
 46 47  1  0  0  0  0
 46 48  1  0  0  0  0
 51 52  2  0  0  0  0
 50 53  1  0  0  0  0
 52 53  1  0  0  0  0
 49 54  1  0  0  0  0
 53 54  2  0  0  0  0
 54 55  1  0  0  0  0
 51 56  1  0  0  0  0
 55 56  2  0  0  0  0
 51 57  1  0  0  0  0
 57 58  1  0  0  0  0
 58 59  1  0  0  0  0
 59 60  2  0  0  0  0
 60 61  1  0  0  0  0
 58 62  1  0  0  0  0
 61 62  2  0  0  0  0
 60 63  1  0  0  0  0
 63 64  1  0  0  0  0
 64 65  1  0  0  0  0
 59 66  1  0  0  0  0
 65 66  2  0  0  0  0
 63 67  2  0  0  0  0
 64 68  1  0  0  0  0
 68 69  1  0  0  0  0
 69 70  1  0  0  0  0
 70 71  1  0  0  0  0
 70 72  1  0  0  0  0
 75 76  2  0  0  0  0
 74 77  1  0  0  0  0
 76 77  1  0  0  0  0
 73 78  1  0  0  0  0
 77 78  2  0  0  0  0
 78 79  1  0  0  0  0
 75 80  1  0  0  0  0
 79 80  2  0  0  0  0
 75 81  1  0  0  0  0
 81 82  1  0  0  0  0
 82 83  1  0  0  0  0
 83 84  2  0  0  0  0
 84 85  1  0  0  0  0
 82 86  1  0  0  0  0
 85 86  2  0  0  0  0
 84 87  1  0  0  0  0
 87 88  1  0  0  0  0
 88 89  1  0  0  0  0
 83 90  1  0  0  0  0
 89 90  2  0  0  0  0
 87 91  2  0  0  0  0
 88 92  1  0  0  0  0
 92 93  1  0  0  0  0
 93 94  1  0  0  0  0
 94 95  1  0  0  0  0
 94 96  1  0  0  0  0
M  END
$$$$
