8A9K
  PyMOL3.1          3D                             0

 29 32  0  0  0  0  0  0  0  0999 V2000
  164.1850  123.6810  130.8050 N   0  0  0  0  0  0  0  0  0  0  0  0
  161.7880  121.1360  132.2340 C   0  0  0  0  0  0  0  0  0  0  0  0
  162.7330  121.8290  131.2860 C   0  0  0  0  0  0  0  0  0  0  0  0
  163.9680  121.9060  129.2190 N   0  0  0  0  0  0  0  0  0  0  0  0
  163.3250  123.0400  131.5960 C   0  0  0  0  0  0  0  0  0  0  0  0
  162.5500  120.1360  129.6160 N   0  0  0  0  0  0  0  0  0  0  0  0
  164.4760  123.0780  129.6420 C   0  0  0  0  0  0  0  0  0  0  0  0
  159.1940  120.6150  124.0930 N   0  0  0  0  0  0  0  0  0  0  0  0
  163.0970  121.2900  130.0340 C   0  0  0  0  0  0  0  0  0  0  0  0
  158.5990  120.9350  122.0660 N   0  0  0  0  0  0  0  0  0  0  0  0
  162.8770  119.5220  128.3400 C   0  0  0  0  0  0  0  0  0  0  0  0
  159.6560  120.7620  122.8290 N   0  0  0  0  0  0  0  0  0  0  0  0
  161.8960  119.8480  127.2410 C   0  0  0  0  0  0  0  0  0  0  0  0
  162.3060  120.5260  126.1000 C   0  0  0  0  0  0  0  0  0  0  0  0
  161.4200  120.7970  125.0720 C   0  0  0  0  0  0  0  0  0  0  0  0
  160.0990  120.3860  125.1730 C   0  0  0  0  0  0  0  0  0  0  0  0
  159.6720  119.7200  126.3110 C   0  0  0  0  0  0  0  0  0  0  0  0
  160.5670  119.4560  127.3320 C   0  0  0  0  0  0  0  0  0  0  0  0
  157.8410  120.6980  124.1250 C   0  0  0  0  0  0  0  0  0  0  0  0
  157.4810  120.9000  122.8380 C   0  0  0  0  0  0  0  0  0  0  0  0
  165.4210  123.7800  128.7320 C   0  0  0  0  0  0  0  0  0  0  0  0
  164.9920  124.0660  127.4340 C   0  0  0  0  0  0  0  0  0  0  0  0
  165.8310  124.7020  126.5360 C   0  0  0  0  0  0  0  0  0  0  0  0
  167.1030  125.0630  126.9140 C   0  0  0  0  0  0  0  0  0  0  0  0
  167.5510  124.7910  128.1940 C   0  0  0  0  0  0  0  0  0  0  0  0
  166.7240  124.1490  129.1110 C   0  0  0  0  0  0  0  0  0  0  0  0
  167.2620  123.8470  130.5010 C   0  0  0  0  0  0  0  0  0  0  0  0
  168.4040  122.8350  130.4540 C   0  0  0  0  0  0  0  0  0  0  0  0
  167.7130  125.1180  131.2160 C   0  0  0  0  0  0  0  0  0  0  0  0
  1  5  4  0  0  0  0
  1  7  4  0  0  0  0
  2  3  1  0  0  0  0
  3  5  4  0  0  0  0
  3  9  4  0  0  0  0
  4  7  4  0  0  0  0
  8 12  4  0  0  0  0
  4  9  4  0  0  0  0
  6  9  1  0  0  0  0
 10 12  4  0  0  0  0
  6 11  1  0  0  0  0
 11 13  1  0  0  0  0
 13 14  4  0  0  0  0
 14 15  4  0  0  0  0
 15 16  4  0  0  0  0
  8 16  1  0  0  0  0
 16 17  4  0  0  0  0
 17 18  4  0  0  0  0
 13 18  4  0  0  0  0
  8 19  4  0  0  0  0
 19 20  4  0  0  0  0
 10 20  4  0  0  0  0
  7 21  1  0  0  0  0
 21 22  4  0  0  0  0
 21 26  4  0  0  0  0
 22 23  4  0  0  0  0
 23 24  4  0  0  0  0
 24 25  4  0  0  0  0
 25 26  4  0  0  0  0
 26 27  1  0  0  0  0
 27 28  1  0  0  0  0
 27 29  1  0  0  0  0
M  END
$$$$
