8DB9
  PyMOL3.1          3D                             0

 17 18  0  0  0  0  0  0  0  0999 V2000
  -27.8610  -33.0080    6.3700 C   0  0  0  0  0  0  0  0  0  0  0  0
  -29.0670  -33.4720    6.2740 N   0  0  0  0  0  0  0  0  0  0  0  0
  -29.0030  -34.7610    5.8670 C   0  0  0  0  0  0  0  0  0  0  0  0
  -27.7610  -35.0700    5.7130 N   0  0  0  0  0  0  0  0  0  0  0  0
  -27.0520  -33.9720    6.0270 N   0  0  0  0  0  0  0  0  0  0  0  0
  -25.6210  -33.8470    5.9880 C   0  0  0  0  0  0  0  0  0  0  0  0
  -24.6770  -35.0840    6.2840 C   0  0  0  0  0  0  0  0  0  0  0  0
  -23.8570  -35.1900    5.2880 C   0  0  0  0  0  0  0  0  0  0  0  0
  -24.4140  -34.1930    4.0530 C   0  0  0  0  0  0  0  0  0  0  0  0
  -25.4400  -33.4870    4.4890 O   0  0  0  0  0  0  0  0  0  0  0  0
  -24.9880  -35.0390    2.8600 C   0  0  0  0  0  0  0  0  0  0  0  0
  -25.9340  -34.2060    2.2330 O   0  0  0  0  0  0  0  0  0  0  0  0
  -22.5140  -34.8020    5.6710 O   0  0  0  0  0  0  0  0  0  0  0  0
  -24.0400  -34.7240    7.4710 O   0  0  0  0  0  0  0  0  0  0  0  0
  -30.2540  -35.6710    5.6480 C   0  0  0  0  0  0  0  0  0  0  0  0
  -31.2090  -35.2280    5.0040 N   0  0  0  0  0  0  0  0  0  0  0  0
  -30.3120  -37.0520    6.2310 N   0  0  0  0  0  0  0  0  0  0  0  0
  1  2  2  0  0  0  0
  2  3  1  0  0  0  0
  3  4  2  0  0  0  0
  1  5  1  0  0  0  0
  4  5  1  0  0  0  0
  5  6  1  0  0  0  0
  6  7  1  0  0  0  0
  7  8  1  0  0  0  0
  8  9  1  0  0  0  0
  6 10  1  0  0  0  0
  9 10  1  0  0  0  0
  9 11  1  0  0  0  0
 11 12  1  0  0  0  0
  8 13  1  0  0  0  0
  7 14  1  0  0  0  0
  3 15  1  0  0  0  0
 15 16  2  0  0  0  0
 15 17  1  0  0  0  0
M  END
$$$$
