8PFL
  PyMOL3.1          3D                             0

 48 53  0  0  0  0  0  0  0  0999 V2000
  -32.3900   -7.1290   22.8880 C   0  0  0  0  0  0  0  0  0  0  0  0
  -31.3240   -6.1020   23.0860 C   0  0  0  0  0  0  0  0  0  0  0  0
  -30.2650   -6.3420   23.9050 C   0  0  0  0  0  0  0  0  0  0  0  0
  -30.0790   -7.6750   24.6050 C   0  0  0  0  0  0  0  0  0  0  0  0
  -31.3800   -8.5050   24.5300 C   0  0  0  0  0  0  0  0  0  0  0  0
  -31.9620   -8.4470   23.2260 O   0  0  0  0  0  0  0  0  0  0  0  0
  -29.2660   -5.3050   24.1220 C   0  0  0  0  0  0  0  0  0  0  0  0
  -27.4740   -4.3410   24.6060 N   0  0  0  0  0  0  0  0  0  0  0  0
  -28.2720   -3.4620   23.9750 C   0  0  0  0  0  0  0  0  0  0  0  0
  -27.8740   -2.1650   23.7460 N   0  0  0  0  0  0  0  0  0  0  0  0
  -26.5790   -1.7760   24.1720 C   0  0  0  0  0  0  0  0  0  0  0  0
  -25.7790   -2.6940   24.8150 C   0  0  0  0  0  0  0  0  0  0  0  0
  -26.1930   -4.0520   25.0750 C   0  0  0  0  0  0  0  0  0  0  0  0
  -28.0930   -5.5630   24.7100 N   0  0  0  0  0  0  0  0  0  0  0  0
  -29.4420   -4.0050   23.6850 N   0  0  0  0  0  0  0  0  0  0  0  0
  -26.0720   -0.3820   23.9090 C   0  0  0  0  0  0  0  0  0  0  0  0
  -24.4970   -2.4810   25.2750 N   0  0  0  0  0  0  0  0  0  0  0  0
  -25.5370   -4.9130   25.6420 O   0  0  0  0  0  0  0  0  0  0  0  0
  -24.2480   -2.2340   26.7080 C   0  0  0  0  0  0  0  0  0  0  0  0
  -23.0060   -1.3760   26.9070 C   0  0  0  0  0  0  0  0  0  0  0  0
  -21.8710   -1.9520   26.1740 N   0  0  0  0  0  0  0  0  0  0  0  0
  -22.1210   -2.0480   24.7280 C   0  0  0  0  0  0  0  0  0  0  0  0
  -23.3460   -2.9210   24.4610 C   0  0  0  0  0  0  0  0  0  0  0  0
  -31.4960    1.2190   26.0280 C   0  0  0  0  0  0  0  0  0  0  0  0
  -32.5880    1.6640   26.7620 C   0  0  0  0  0  0  0  0  0  0  0  0
  -33.8830    1.5750   26.2760 C   0  0  0  0  0  0  0  0  0  0  0  0
  -34.0980    1.0240   25.0190 C   0  0  0  0  0  0  0  0  0  0  0  0
  -33.0430    0.5610   24.2540 C   0  0  0  0  0  0  0  0  0  0  0  0
  -31.7410    0.6540   24.7490 C   0  0  0  0  0  0  0  0  0  0  0  0
  -35.0340    2.0470   27.1070 C   0  0  0  0  0  0  0  0  0  0  0  0
  -30.6800    0.1590   23.9480 N   0  0  0  0  0  0  0  0  0  0  0  0
  -29.8010   -0.7990   24.3030 C   0  0  0  0  0  0  0  0  0  0  0  0
  -29.7140   -1.2620   25.4310 O   0  0  0  0  0  0  0  0  0  0  0  0
  -28.8380   -1.2160   23.2050 C   0  0  0  0  0  0  0  0  0  0  0  0
  -30.1070    1.4330   26.5730 C   0  0  0  0  0  0  0  0  0  0  0  0
  -20.7330   -2.3210   26.7940 C   0  0  0  0  0  0  0  0  0  0  0  0
  -20.6470   -2.4240   28.0060 O   0  0  0  0  0  0  0  0  0  0  0  0
  -19.5010   -2.5840   25.9680 C   0  0  0  0  0  0  0  0  0  0  0  0
  -18.9940   -1.5680   25.2430 N   0  0  0  0  0  0  0  0  0  0  0  0
  -17.8310   -1.7750   24.5940 C   0  0  0  0  0  0  0  0  0  0  0  0
  -17.1440   -2.9640   24.6300 C   0  0  0  0  0  0  0  0  0  0  0  0
  -17.6670   -4.0030   25.3760 C   0  0  0  0  0  0  0  0  0  0  0  0
  -18.8660   -3.8230   26.0600 C   0  0  0  0  0  0  0  0  0  0  0  0
  -19.3580   -4.8380   26.8120 O   0  0  0  0  0  0  0  0  0  0  0  0
  -26.3820    0.5690   25.0550 C   0  0  0  0  0  0  0  0  0  0  0  0
  -35.9690    1.1870   27.1760 F   0  0  0  0  0  0  0  0  0  0  0  0
  -34.7340    2.2610   28.3590 F   0  0  0  0  0  0  0  0  0  0  0  0
  -35.5610    3.1400   26.6430 F   0  0  0  0  0  0  0  0  0  0  0  0
  1  2  1  0  0  0  0
  2  3  2  0  0  0  0
  3  4  1  0  0  0  0
  4  5  1  0  0  0  0
  1  6  1  0  0  0  0
  5  6  1  0  0  0  0
  3  7  1  0  0  0  0
  8  9  1  0  0  0  0
  9 10  1  0  0  0  0
 10 11  1  0  0  0  0
 11 12  2  0  0  0  0
  8 13  1  0  0  0  0
 12 13  1  0  0  0  0
  7 14  2  0  0  0  0
  8 14  1  0  0  0  0
  7 15  1  0  0  0  0
  9 15  2  0  0  0  0
 11 16  1  0  0  0  0
 12 17  1  0  0  0  0
 13 18  2  0  0  0  0
 17 19  1  0  0  0  0
 19 20  1  0  0  0  0
 20 21  1  0  0  0  0
 21 22  1  0  0  0  0
 17 23  1  0  0  0  0
 22 23  1  0  0  0  0
 24 25  2  0  0  0  0
 25 26  1  0  0  0  0
 26 27  2  0  0  0  0
 27 28  1  0  0  0  0
 24 29  1  0  0  0  0
 28 29  2  0  0  0  0
 26 30  1  0  0  0  0
 29 31  1  0  0  0  0
 31 32  1  0  0  0  0
 32 33  2  0  0  0  0
 10 34  1  0  0  0  0
 32 34  1  0  0  0  0
 24 35  1  0  0  0  0
 21 36  1  0  0  0  0
 36 37  2  0  0  0  0
 36 38  1  0  0  0  0
 38 39  2  0  0  0  0
 39 40  1  0  0  0  0
 40 41  2  0  0  0  0
 41 42  1  0  0  0  0
 38 43  1  0  0  0  0
 42 43  2  0  0  0  0
 43 44  1  0  0  0  0
 16 45  1  0  0  0  0
 30 46  1  0  0  0  0
 30 47  1  0  0  0  0
 30 48  1  0  0  0  0
M  END
$$$$
