7XDF
  PyMOL3.1          3D                             0

 29 32  0  0  0  0  0  0  0  0999 V2000
  168.0250  159.1210  133.1150 O   0  0  0  0  0  0  0  0  0  0  0  0
  168.5250  158.1230  132.2740 C   0  0  0  0  0  0  0  0  0  0  0  0
  169.7520  157.5150  132.5080 C   0  0  0  0  0  0  0  0  0  0  0  0
  170.2070  156.5190  131.6260 C   0  0  0  0  0  0  0  0  0  0  0  0
  171.4470  155.8970  131.8490 C   0  0  0  0  0  0  0  0  0  0  0  0
  171.8960  154.9150  130.9800 C   0  0  0  0  0  0  0  0  0  0  0  0
  171.1250  154.5430  129.8880 C   0  0  0  0  0  0  0  0  0  0  0  0
  169.9020  155.1540  129.6660 C   0  0  0  0  0  0  0  0  0  0  0  0
  169.4460  156.1500  130.5460 C   0  0  0  0  0  0  0  0  0  0  0  0
  168.2070  156.7680  130.3160 C   0  0  0  0  0  0  0  0  0  0  0  0
  167.7610  157.7480  131.1840 C   0  0  0  0  0  0  0  0  0  0  0  0
  166.4210  158.4330  130.9580 C   0  0  0  0  0  0  0  0  0  0  0  0
  165.7160  158.1220  129.9660 O   0  0  0  0  0  0  0  0  0  0  0  0
  166.0260  159.3080  131.7720 O   0  0  0  0  0  0  0  0  0  0  0  0
  170.6270  157.9060  133.7010 C   0  0  0  0  0  0  0  0  0  0  0  0
  169.8580  157.8170  135.0190 C   0  0  0  0  0  0  0  0  0  0  0  0
  169.6060  156.5720  135.6200 C   0  0  0  0  0  0  0  0  0  0  0  0
  170.0560  155.3910  135.0070 C   0  0  0  0  0  0  0  0  0  0  0  0
  169.8000  154.1670  135.5990 C   0  0  0  0  0  0  0  0  0  0  0  0
  169.1050  154.1060  136.7970 C   0  0  0  0  0  0  0  0  0  0  0  0
  168.6600  155.2700  137.4030 C   0  0  0  0  0  0  0  0  0  0  0  0
  168.9170  156.5110  136.8030 C   0  0  0  0  0  0  0  0  0  0  0  0
  168.4650  157.6900  137.4170 C   0  0  0  0  0  0  0  0  0  0  0  0
  168.7180  158.9160  136.8250 C   0  0  0  0  0  0  0  0  0  0  0  0
  168.2270  160.1980  137.4850 C   0  0  0  0  0  0  0  0  0  0  0  0
  168.6020  161.3140  137.0470 O   0  0  0  0  0  0  0  0  0  0  0  0
  167.4410  160.1370  138.4630 O   0  0  0  0  0  0  0  0  0  0  0  0
  169.4190  158.9770  135.6310 C   0  0  0  0  0  0  0  0  0  0  0  0
  169.6710  160.2130  135.0310 O   0  0  0  0  0  0  0  0  0  0  0  0
  1  2  1  0  0  0  0
  2  3  4  0  0  0  0
  2 11  4  0  0  0  0
  3  4  4  0  0  0  0
  3 15  1  0  0  0  0
  4  5  4  0  0  0  0
  4  9  4  0  0  0  0
  5  6  4  0  0  0  0
  6  7  4  0  0  0  0
  7  8  4  0  0  0  0
  8  9  4  0  0  0  0
  9 10  4  0  0  0  0
 10 11  4  0  0  0  0
 11 12  1  0  0  0  0
 12 13  4  0  0  0  0
 12 14  4  0  0  0  0
 15 16  1  0  0  0  0
 16 17  4  0  0  0  0
 16 28  4  0  0  0  0
 17 18  4  0  0  0  0
 17 22  4  0  0  0  0
 18 19  4  0  0  0  0
 19 20  4  0  0  0  0
 20 21  4  0  0  0  0
 21 22  4  0  0  0  0
 22 23  4  0  0  0  0
 23 24  4  0  0  0  0
 24 25  1  0  0  0  0
 24 28  4  0  0  0  0
 25 26  4  0  0  0  0
 25 27  4  0  0  0  0
 28 29  1  0  0  0  0
M  END
$$$$
