7XDF
  PyMOL3.1          3D                             0

116128  0  0  0  0  0  0  0  0999 V2000
  146.8560  159.1190  181.7600 O   0  0  0  0  0  0  0  0  0  0  0  0
  146.3560  158.1210  182.6000 C   0  0  0  0  0  0  0  0  0  0  0  0
  145.1290  157.5130  182.3660 C   0  0  0  0  0  0  0  0  0  0  0  0
  144.6740  156.5160  183.2480 C   0  0  0  0  0  0  0  0  0  0  0  0
  143.4340  155.8950  183.0250 C   0  0  0  0  0  0  0  0  0  0  0  0
  142.9850  154.9120  183.8930 C   0  0  0  0  0  0  0  0  0  0  0  0
  143.7560  154.5390  184.9850 C   0  0  0  0  0  0  0  0  0  0  0  0
  144.9790  155.1510  185.2070 C   0  0  0  0  0  0  0  0  0  0  0  0
  145.4350  156.1470  184.3290 C   0  0  0  0  0  0  0  0  0  0  0  0
  146.6740  156.7640  184.5590 C   0  0  0  0  0  0  0  0  0  0  0  0
  147.1200  157.7450  183.6910 C   0  0  0  0  0  0  0  0  0  0  0  0
  148.4600  158.4300  183.9170 C   0  0  0  0  0  0  0  0  0  0  0  0
  148.8550  159.3060  183.1030 O   0  0  0  0  0  0  0  0  0  0  0  0
  149.1650  158.1190  184.9090 O   0  0  0  0  0  0  0  0  0  0  0  0
  144.2560  157.9050  181.1730 C   0  0  0  0  0  0  0  0  0  0  0  0
  145.0240  157.8150  179.8550 C   0  0  0  0  0  0  0  0  0  0  0  0
  145.2770  156.5710  179.2550 C   0  0  0  0  0  0  0  0  0  0  0  0
  144.8270  155.3900  179.8660 C   0  0  0  0  0  0  0  0  0  0  0  0
  145.0820  154.1660  179.2750 C   0  0  0  0  0  0  0  0  0  0  0  0
  145.7780  154.1050  178.0760 C   0  0  0  0  0  0  0  0  0  0  0  0
  146.2230  155.2690  177.4700 C   0  0  0  0  0  0  0  0  0  0  0  0
  145.9660  156.5100  178.0720 C   0  0  0  0  0  0  0  0  0  0  0  0
  146.4180  157.6890  177.4580 C   0  0  0  0  0  0  0  0  0  0  0  0
  146.1640  158.9150  178.0500 C   0  0  0  0  0  0  0  0  0  0  0  0
  146.6560  160.1970  177.3910 C   0  0  0  0  0  0  0  0  0  0  0  0
  147.4410  160.1360  176.4130 O   0  0  0  0  0  0  0  0  0  0  0  0
  146.2800  161.3120  177.8290 O   0  0  0  0  0  0  0  0  0  0  0  0
  145.4640  158.9760  179.2440 C   0  0  0  0  0  0  0  0  0  0  0  0
  145.2110  160.2120  179.8430 O   0  0  0  0  0  0  0  0  0  0  0  0
  168.0230  155.7370  181.7650 O   0  0  0  0  0  0  0  0  0  0  0  0
  168.5240  156.7350  182.6060 C   0  0  0  0  0  0  0  0  0  0  0  0
  169.7500  157.3440  182.3720 C   0  0  0  0  0  0  0  0  0  0  0  0
  170.2050  158.3390  183.2540 C   0  0  0  0  0  0  0  0  0  0  0  0
  171.4450  158.9610  183.0310 C   0  0  0  0  0  0  0  0  0  0  0  0
  171.8940  159.9420  183.9000 C   0  0  0  0  0  0  0  0  0  0  0  0
  171.1220  160.3150  184.9930 C   0  0  0  0  0  0  0  0  0  0  0  0
  169.9000  159.7030  185.2140 C   0  0  0  0  0  0  0  0  0  0  0  0
  169.4440  158.7080  184.3350 C   0  0  0  0  0  0  0  0  0  0  0  0
  168.2050  158.0900  184.5640 C   0  0  0  0  0  0  0  0  0  0  0  0
  167.7600  157.1090  183.6960 C   0  0  0  0  0  0  0  0  0  0  0  0
  166.4190  156.4240  183.9220 C   0  0  0  0  0  0  0  0  0  0  0  0
  166.0250  155.5500  183.1080 O   0  0  0  0  0  0  0  0  0  0  0  0
  165.7140  156.7350  184.9140 O   0  0  0  0  0  0  0  0  0  0  0  0
  170.6240  156.9520  181.1790 C   0  0  0  0  0  0  0  0  0  0  0  0
  169.8550  157.0410  179.8610 C   0  0  0  0  0  0  0  0  0  0  0  0
  169.6030  158.2860  179.2610 C   0  0  0  0  0  0  0  0  0  0  0  0
  170.0530  159.4670  179.8730 C   0  0  0  0  0  0  0  0  0  0  0  0
  169.7970  160.6910  179.2830 C   0  0  0  0  0  0  0  0  0  0  0  0
  169.1020  160.7520  178.0840 C   0  0  0  0  0  0  0  0  0  0  0  0
  168.6570  159.5880  177.4770 C   0  0  0  0  0  0  0  0  0  0  0  0
  168.9140  158.3470  178.0780 C   0  0  0  0  0  0  0  0  0  0  0  0
  168.4620  157.1680  177.4630 C   0  0  0  0  0  0  0  0  0  0  0  0
  168.7150  155.9420  178.0550 C   0  0  0  0  0  0  0  0  0  0  0  0
  168.2250  154.6600  177.3960 C   0  0  0  0  0  0  0  0  0  0  0  0
  167.4390  154.7210  176.4180 O   0  0  0  0  0  0  0  0  0  0  0  0
  168.6000  153.5440  177.8340 O   0  0  0  0  0  0  0  0  0  0  0  0
  169.4160  155.8810  179.2490 C   0  0  0  0  0  0  0  0  0  0  0  0
  169.6680  154.6440  179.8490 O   0  0  0  0  0  0  0  0  0  0  0  0
  146.8540  155.7420  133.1190 O   0  0  0  0  0  0  0  0  0  0  0  0
  146.3540  156.7400  132.2800 C   0  0  0  0  0  0  0  0  0  0  0  0
  145.1270  157.3490  132.5140 C   0  0  0  0  0  0  0  0  0  0  0  0
  144.6720  158.3440  131.6320 C   0  0  0  0  0  0  0  0  0  0  0  0
  143.4320  158.9660  131.8550 C   0  0  0  0  0  0  0  0  0  0  0  0
  142.9830  159.9480  130.9860 C   0  0  0  0  0  0  0  0  0  0  0  0
  143.7550  160.3210  129.8930 C   0  0  0  0  0  0  0  0  0  0  0  0
  144.9770  159.7090  129.6720 C   0  0  0  0  0  0  0  0  0  0  0  0
  145.4330  158.7140  130.5510 C   0  0  0  0  0  0  0  0  0  0  0  0
  146.6720  158.0960  130.3220 C   0  0  0  0  0  0  0  0  0  0  0  0
  147.1180  157.1150  131.1900 C   0  0  0  0  0  0  0  0  0  0  0  0
  148.4580  156.4300  130.9630 C   0  0  0  0  0  0  0  0  0  0  0  0
  149.1630  156.7410  129.9700 O   0  0  0  0  0  0  0  0  0  0  0  0
  148.8530  155.5550  131.7770 O   0  0  0  0  0  0  0  0  0  0  0  0
  144.2550  156.9550  133.7070 C   0  0  0  0  0  0  0  0  0  0  0  0
  145.0240  157.0450  135.0250 C   0  0  0  0  0  0  0  0  0  0  0  0
  145.2760  158.2900  135.6250 C   0  0  0  0  0  0  0  0  0  0  0  0
  144.8260  159.4700  135.0130 C   0  0  0  0  0  0  0  0  0  0  0  0
  145.0820  160.6950  135.6040 C   0  0  0  0  0  0  0  0  0  0  0  0
  145.7770  160.7560  136.8030 C   0  0  0  0  0  0  0  0  0  0  0  0
  146.2220  159.5920  137.4090 C   0  0  0  0  0  0  0  0  0  0  0  0
  145.9650  158.3510  136.8080 C   0  0  0  0  0  0  0  0  0  0  0  0
  146.4170  157.1720  137.4230 C   0  0  0  0  0  0  0  0  0  0  0  0
  146.1640  155.9460  136.8300 C   0  0  0  0  0  0  0  0  0  0  0  0
  146.6550  154.6640  137.4880 C   0  0  0  0  0  0  0  0  0  0  0  0
  146.2790  153.5480  137.0510 O   0  0  0  0  0  0  0  0  0  0  0  0
  147.4400  154.7250  138.4670 O   0  0  0  0  0  0  0  0  0  0  0  0
  145.4630  155.8840  135.6360 C   0  0  0  0  0  0  0  0  0  0  0  0
  145.2100  154.6480  135.0360 O   0  0  0  0  0  0  0  0  0  0  0  0
  168.0250  159.1210  133.1150 O   0  0  0  0  0  0  0  0  0  0  0  0
  168.5250  158.1230  132.2740 C   0  0  0  0  0  0  0  0  0  0  0  0
  169.7520  157.5150  132.5080 C   0  0  0  0  0  0  0  0  0  0  0  0
  170.2070  156.5190  131.6260 C   0  0  0  0  0  0  0  0  0  0  0  0
  171.4470  155.8970  131.8490 C   0  0  0  0  0  0  0  0  0  0  0  0
  171.8960  154.9150  130.9800 C   0  0  0  0  0  0  0  0  0  0  0  0
  171.1250  154.5430  129.8880 C   0  0  0  0  0  0  0  0  0  0  0  0
  169.9020  155.1540  129.6660 C   0  0  0  0  0  0  0  0  0  0  0  0
  169.4460  156.1500  130.5460 C   0  0  0  0  0  0  0  0  0  0  0  0
  168.2070  156.7680  130.3160 C   0  0  0  0  0  0  0  0  0  0  0  0
  167.7610  157.7480  131.1840 C   0  0  0  0  0  0  0  0  0  0  0  0
  166.4210  158.4330  130.9580 C   0  0  0  0  0  0  0  0  0  0  0  0
  165.7160  158.1220  129.9660 O   0  0  0  0  0  0  0  0  0  0  0  0
  166.0260  159.3080  131.7720 O   0  0  0  0  0  0  0  0  0  0  0  0
  170.6270  157.9060  133.7010 C   0  0  0  0  0  0  0  0  0  0  0  0
  169.8580  157.8170  135.0190 C   0  0  0  0  0  0  0  0  0  0  0  0
  169.6060  156.5720  135.6200 C   0  0  0  0  0  0  0  0  0  0  0  0
  170.0560  155.3910  135.0070 C   0  0  0  0  0  0  0  0  0  0  0  0
  169.8000  154.1670  135.5990 C   0  0  0  0  0  0  0  0  0  0  0  0
  169.1050  154.1060  136.7970 C   0  0  0  0  0  0  0  0  0  0  0  0
  168.6600  155.2700  137.4030 C   0  0  0  0  0  0  0  0  0  0  0  0
  168.9170  156.5110  136.8030 C   0  0  0  0  0  0  0  0  0  0  0  0
  168.4650  157.6900  137.4170 C   0  0  0  0  0  0  0  0  0  0  0  0
  168.7180  158.9160  136.8250 C   0  0  0  0  0  0  0  0  0  0  0  0
  168.2270  160.1980  137.4850 C   0  0  0  0  0  0  0  0  0  0  0  0
  168.6020  161.3140  137.0470 O   0  0  0  0  0  0  0  0  0  0  0  0
  167.4410  160.1370  138.4630 O   0  0  0  0  0  0  0  0  0  0  0  0
  169.4190  158.9770  135.6310 C   0  0  0  0  0  0  0  0  0  0  0  0
  169.6710  160.2130  135.0310 O   0  0  0  0  0  0  0  0  0  0  0  0
  1  2  1  0  0  0  0
  2  3  4  0  0  0  0
  2 11  4  0  0  0  0
  3  4  4  0  0  0  0
  3 15  1  0  0  0  0
  4  5  4  0  0  0  0
  4  9  4  0  0  0  0
  5  6  4  0  0  0  0
  6  7  4  0  0  0  0
  7  8  4  0  0  0  0
  8  9  4  0  0  0  0
  9 10  4  0  0  0  0
 10 11  4  0  0  0  0
 11 12  1  0  0  0  0
 12 13  4  0  0  0  0
 12 14  4  0  0  0  0
 15 16  1  0  0  0  0
 16 17  4  0  0  0  0
 16 28  4  0  0  0  0
 17 18  4  0  0  0  0
 17 22  4  0  0  0  0
 18 19  4  0  0  0  0
 19 20  4  0  0  0  0
 20 21  4  0  0  0  0
 21 22  4  0  0  0  0
 22 23  4  0  0  0  0
 23 24  4  0  0  0  0
 24 25  1  0  0  0  0
 24 28  4  0  0  0  0
 25 26  4  0  0  0  0
 25 27  4  0  0  0  0
 28 29  1  0  0  0  0
 30 31  1  0  0  0  0
 31 32  4  0  0  0  0
 31 40  4  0  0  0  0
 32 33  4  0  0  0  0
 32 44  1  0  0  0  0
 33 34  4  0  0  0  0
 33 38  4  0  0  0  0
 34 35  4  0  0  0  0
 35 36  4  0  0  0  0
 36 37  4  0  0  0  0
 37 38  4  0  0  0  0
 38 39  4  0  0  0  0
 39 40  4  0  0  0  0
 40 41  1  0  0  0  0
 41 42  4  0  0  0  0
 41 43  4  0  0  0  0
 44 45  1  0  0  0  0
 45 46  4  0  0  0  0
 45 57  4  0  0  0  0
 46 47  4  0  0  0  0
 46 51  4  0  0  0  0
 47 48  4  0  0  0  0
 48 49  4  0  0  0  0
 49 50  4  0  0  0  0
 50 51  4  0  0  0  0
 51 52  4  0  0  0  0
 52 53  4  0  0  0  0
 53 54  1  0  0  0  0
 53 57  4  0  0  0  0
 54 55  4  0  0  0  0
 54 56  4  0  0  0  0
 57 58  1  0  0  0  0
 59 60  1  0  0  0  0
 60 61  4  0  0  0  0
 60 69  4  0  0  0  0
 61 62  4  0  0  0  0
 61 73  1  0  0  0  0
 62 63  4  0  0  0  0
 62 67  4  0  0  0  0
 63 64  4  0  0  0  0
 64 65  4  0  0  0  0
 65 66  4  0  0  0  0
 66 67  4  0  0  0  0
 67 68  4  0  0  0  0
 68 69  4  0  0  0  0
 69 70  1  0  0  0  0
 70 71  4  0  0  0  0
 70 72  4  0  0  0  0
 73 74  1  0  0  0  0
 74 75  4  0  0  0  0
 74 86  4  0  0  0  0
 75 76  4  0  0  0  0
 75 80  4  0  0  0  0
 76 77  4  0  0  0  0
 77 78  4  0  0  0  0
 78 79  4  0  0  0  0
 79 80  4  0  0  0  0
 80 81  4  0  0  0  0
 81 82  4  0  0  0  0
 82 83  1  0  0  0  0
 82 86  4  0  0  0  0
 83 84  4  0  0  0  0
 83 85  4  0  0  0  0
 86 87  1  0  0  0  0
 88 89  1  0  0  0  0
 89 90  4  0  0  0  0
 89 98  4  0  0  0  0
 90 91  4  0  0  0  0
 90102  1  0  0  0  0
 91 92  4  0  0  0  0
 91 96  4  0  0  0  0
 92 93  4  0  0  0  0
 93 94  4  0  0  0  0
 94 95  4  0  0  0  0
 95 96  4  0  0  0  0
 96 97  4  0  0  0  0
 97 98  4  0  0  0  0
 98 99  1  0  0  0  0
 99100  4  0  0  0  0
 99101  4  0  0  0  0
102103  1  0  0  0  0
103104  4  0  0  0  0
103115  4  0  0  0  0
104105  4  0  0  0  0
104109  4  0  0  0  0
105106  4  0  0  0  0
106107  4  0  0  0  0
107108  4  0  0  0  0
108109  4  0  0  0  0
109110  4  0  0  0  0
110111  4  0  0  0  0
111112  1  0  0  0  0
111115  4  0  0  0  0
112113  4  0  0  0  0
112114  4  0  0  0  0
115116  1  0  0  0  0
M  END
$$$$
