7DSL
  PyMOL3.1          3D                             0

 28 31  0  0  0  0  0  0  0  0999 V2000
  145.5470  137.9400  134.3500 C   0  0  0  0  0  0  0  0  0  0  0  0
  145.4030  139.3050  134.5050 C   0  0  0  0  0  0  0  0  0  0  0  0
  145.0210  140.1320  133.3240 C   0  0  0  0  0  0  0  0  0  0  0  0
  144.8250  139.5090  132.1080 C   0  0  0  0  0  0  0  0  0  0  0  0
  144.9790  138.1150  131.9660 C   0  0  0  0  0  0  0  0  0  0  0  0
  145.3410  137.3170  133.0910 C   0  0  0  0  0  0  0  0  0  0  0  0
  145.6330  140.1800  136.0070 C   0  0  0  0  0  0  0  0  0  0  0  0
  146.0070  141.7590  135.7520 C   0  0  0  0  0  0  0  0  0  0  0  0
  145.2690  142.2260  134.6470 C   0  0  0  0  0  0  0  0  0  0  0  0
  144.9020  141.5250  133.5640 C   0  0  0  0  0  0  0  0  0  0  0  0
  145.4980  135.9260  132.9340 O   0  0  0  0  0  0  0  0  0  0  0  0
  147.4490  141.8830  135.4740 N   0  0  0  0  0  0  0  0  0  0  0  0
  144.9940  135.1030  133.9770 C   0  0  0  0  0  0  0  0  0  0  0  0
  146.1420  134.5560  134.8320 C   0  0  0  0  0  0  0  0  0  0  0  0
  145.8960  133.4800  135.6960 C   0  0  0  0  0  0  0  0  0  0  0  0
  146.9220  132.9650  136.4890 C   0  0  0  0  0  0  0  0  0  0  0  0
  148.2010  133.5290  136.4260 C   0  0  0  0  0  0  0  0  0  0  0  0
  148.4500  134.6050  135.5650 C   0  0  0  0  0  0  0  0  0  0  0  0
  147.4180  135.1170  134.7670 C   0  0  0  0  0  0  0  0  0  0  0  0
  144.4620  132.8590  135.7540 C   0  0  0  0  0  0  0  0  0  0  0  0
  143.3550  133.6860  135.8340 C   0  0  0  0  0  0  0  0  0  0  0  0
  142.0700  133.1260  135.8800 C   0  0  0  0  0  0  0  0  0  0  0  0
  141.9120  131.7550  135.8410 C   0  0  0  0  0  0  0  0  0  0  0  0
  143.0210  130.9290  135.7570 C   0  0  0  0  0  0  0  0  0  0  0  0
  144.3090  131.4890  135.7120 C   0  0  0  0  0  0  0  0  0  0  0  0
  145.6990  142.5130  137.0470 C   0  0  0  0  0  0  0  0  0  0  0  0
  144.5250  142.5510  137.4630 O   0  0  0  0  0  0  0  0  0  0  0  0
  146.6240  143.0850  137.6860 O   0  5  0  0  0  0  0  0  0  0  0  0
  1  2  4  0  0  0  0
  1  6  4  0  0  0  0
  2  3  4  0  0  0  0
  2  7  1  0  0  0  0
  3  4  4  0  0  0  0
  4  5  4  0  0  0  0
  5  6  4  0  0  0  0
  6 11  1  0  0  0  0
  7  8  1  0  0  0  0
  8  9  1  0  0  0  0
  3 10  1  0  0  0  0
  9 10  1  0  0  0  0
  8 12  1  0  0  0  0
 11 13  1  0  0  0  0
 13 14  1  0  0  0  0
 14 19  4  0  0  0  0
 14 15  4  0  0  0  0
 15 16  4  0  0  0  0
 15 20  1  0  0  0  0
 16 17  4  0  0  0  0
 17 18  4  0  0  0  0
 18 19  4  0  0  0  0
 20 21  4  0  0  0  0
 20 25  4  0  0  0  0
 21 22  4  0  0  0  0
 22 23  4  0  0  0  0
 23 24  4  0  0  0  0
 24 25  4  0  0  0  0
  8 26  1  0  0  0  0
 26 27  4  0  0  0  0
 26 28  4  0  0  0  0
M  END
$$$$
