7URD
  PyMOL3.1          3D                             0

 30 33  0  0  0  0  0  0  0  0999 V2000
  109.1100  109.1230  108.7530 C   0  0  0  0  0  0  0  0  0  0  0  0
  110.6270  109.0020  108.6000 C   0  0  0  0  0  0  0  0  0  0  0  0
  111.3400  108.9150  109.7850 C   0  0  0  0  0  0  0  0  0  0  0  0
  112.7160  108.8040  109.7350 C   0  0  0  0  0  0  0  0  0  0  0  0
  113.3430  108.7840  108.5060 C   0  0  0  0  0  0  0  0  0  0  0  0
  112.6290  108.8680  107.4010 N   0  0  0  0  0  0  0  0  0  0  0  0
  111.3120  108.9630  107.3780 C   0  0  0  0  0  0  0  0  0  0  0  0
  110.6860  109.0730  105.9720 C   0  0  0  0  0  0  0  0  0  0  0  0
  109.3880  108.7270  105.6270 C   0  0  0  0  0  0  0  0  0  0  0  0
  108.9670  108.8950  104.3200 C   0  0  0  0  0  0  0  0  0  0  0  0
  109.7730  109.3660  103.3970 N   0  0  0  0  0  0  0  0  0  0  0  0
  111.0110  109.7030  103.6770 C   0  0  0  0  0  0  0  0  0  0  0  0
  111.4970  109.5660  104.9630 C   0  0  0  0  0  0  0  0  0  0  0  0
  107.5410  108.5210  103.9380 C   0  0  0  0  0  0  0  0  0  0  0  0
  113.5120  108.7180  111.0340 C   0  0  0  0  0  0  0  0  0  0  0  0
  114.5230  107.5790  111.0640 C   0  0  0  0  0  0  0  0  0  0  0  0
  114.1440  106.4660  111.1700 O   0  0  0  0  0  0  0  0  0  0  0  0
  115.9360  107.9020  110.9570 N   0  0  0  0  0  0  0  0  0  0  0  0
  116.9830  106.8930  110.9790 C   0  0  0  0  0  0  0  0  0  0  0  0
  116.7020  105.6280  111.1990 N   0  0  0  0  0  0  0  0  0  0  0  0
  117.6510  104.7170  111.2210 C   0  0  0  0  0  0  0  0  0  0  0  0
  118.9720  105.0610  111.0180 C   0  0  0  0  0  0  0  0  0  0  0  0
  119.3200  106.3780  110.7850 C   0  0  0  0  0  0  0  0  0  0  0  0
  118.2870  107.2980  110.7700 C   0  0  0  0  0  0  0  0  0  0  0  0
  120.0600  103.9980  111.0500 C   0  0  0  0  0  0  0  0  0  0  0  0
  119.7900  102.7760  110.6420 N   0  0  0  0  0  0  0  0  0  0  0  0
  120.7460  101.8710  110.6740 C   0  0  0  0  0  0  0  0  0  0  0  0
  122.0110  102.1960  111.1260 C   0  0  0  0  0  0  0  0  0  0  0  0
  122.2630  103.4250  111.5270 N   0  0  0  0  0  0  0  0  0  0  0  0
  121.3170  104.3410  111.5010 C   0  0  0  0  0  0  0  0  0  0  0  0
  1  2  1  0  0  0  0
  2  3  4  0  0  0  0
  2  7  4  0  0  0  0
  3  4  4  0  0  0  0
  4  5  4  0  0  0  0
  5  6  4  0  0  0  0
  6  7  4  0  0  0  0
  7  8  1  0  0  0  0
  8  9  4  0  0  0  0
  9 10  4  0  0  0  0
 10 11  4  0  0  0  0
 10 14  1  0  0  0  0
 11 12  4  0  0  0  0
 12 13  4  0  0  0  0
  8 13  4  0  0  0  0
  4 15  1  0  0  0  0
 15 16  1  0  0  0  0
 16 17  2  0  0  0  0
 16 18  1  0  0  0  0
 18 19  1  0  0  0  0
 19 20  4  0  0  0  0
 19 24  4  0  0  0  0
 20 21  4  0  0  0  0
 21 22  4  0  0  0  0
 22 23  4  0  0  0  0
 22 25  1  0  0  0  0
 23 24  4  0  0  0  0
 25 26  4  0  0  0  0
 25 30  4  0  0  0  0
 26 27  4  0  0  0  0
 27 28  4  0  0  0  0
 28 29  4  0  0  0  0
 29 30  4  0  0  0  0
M  END
$$$$
