8YN2
  PyMOL3.1          3D                             0

  8  8  0  0  0  0  0  0  0  0999 V2000
   92.8810  117.0160  123.2580 N   0  0  0  0  0  0  0  0  0  0  0  0
   94.0640  117.6990  122.7180 C   0  0  0  0  0  0  0  0  0  0  0  0
   95.1000  117.8690  123.8260 C   0  0  0  0  0  0  0  0  0  0  0  0
   96.3480  118.4880  123.2570 C   0  0  0  0  0  0  0  0  0  0  0  0
   97.2000  117.9000  122.3980 C   0  0  0  0  0  0  0  0  0  0  0  0
   96.8080  119.7170  123.5190 N   0  0  0  0  0  0  0  0  0  0  0  0
   97.9120  119.9140  122.8540 C   0  0  0  0  0  0  0  0  0  0  0  0
   98.1920  118.8050  122.1410 N   0  0  0  0  0  0  0  0  0  0  0  0
  1  2  1  0  0  0  0
  2  3  1  0  0  0  0
  3  4  1  0  0  0  0
  4  5  2  0  0  0  0
  4  6  1  0  0  0  0
  6  7  2  0  0  0  0
  5  8  1  0  0  0  0
  7  8  1  0  0  0  0
M  END
$$$$
