6PGR
  PyMOL3.1          3D                             0

 44 50  0  0  0  0  0  0  0  0999 V2000
  -43.6950   14.7970   38.5980 C   0  0  0  0  0  0  0  0  0  0  0  0
  -43.0140   15.1740   39.7720 C   0  0  0  0  0  0  0  0  0  0  0  0
  -43.7260   15.5330   40.9080 C   0  0  0  0  0  0  0  0  0  0  0  0
  -45.1640   15.5570   40.8640 C   0  0  0  0  0  0  0  0  0  0  0  0
  -46.1220   15.9280   41.8440 C   0  0  0  0  0  0  0  0  0  0  0  0
  -47.4000   15.8350   41.4310 C   0  0  0  0  0  0  0  0  0  0  0  0
  -47.5090   15.2620   39.7870 S   0  0  0  0  0  0  0  0  0  0  0  0
  -45.7840   15.1650   39.6710 C   0  0  0  0  0  0  0  0  0  0  0  0
  -45.0520   14.7700   38.5550 C   0  0  0  0  0  0  0  0  0  0  0  0
  -48.6110   16.2260   42.1270 C   0  0  0  0  0  0  0  0  0  0  0  0
  -49.6660   16.1390   41.5150 O   0  0  0  0  0  0  0  0  0  0  0  0
  -48.5160   16.8120   43.3530 N   0  0  0  0  0  0  0  0  0  0  0  0
  -49.6120   17.3300   44.0540 C   0  0  0  0  0  0  0  0  0  0  0  0
  -50.5310   18.1760   43.4200 C   0  0  0  0  0  0  0  0  0  0  0  0
  -51.6190   18.7340   44.1270 C   0  0  0  0  0  0  0  0  0  0  0  0
  -51.7560   18.4680   45.4790 C   0  0  0  0  0  0  0  0  0  0  0  0
  -50.8310   17.6390   46.1320 C   0  0  0  0  0  0  0  0  0  0  0  0
  -50.7100   17.1880   47.4280 N   0  0  0  0  0  0  0  0  0  0  0  0
  -49.6050   16.3840   47.5620 C   0  0  0  0  0  0  0  0  0  0  0  0
  -48.9610   16.2660   46.3740 C   0  0  0  0  0  0  0  0  0  0  0  0
  -49.7440   17.0730   45.4220 C   0  0  0  0  0  0  0  0  0  0  0  0
  -42.8640   14.2770   36.9440 Br  0  0  0  0  0  0  0  0  0  0  0  0
  -36.5880    3.0780   45.4480 C   0  0  0  0  0  0  0  0  0  0  0  0
  -37.2550    3.9000   46.3580 C   0  0  0  0  0  0  0  0  0  0  0  0
  -36.5550    4.7370   47.2170 C   0  0  0  0  0  0  0  0  0  0  0  0
  -35.1260    4.7080   47.2090 C   0  0  0  0  0  0  0  0  0  0  0  0
  -34.1620    5.3910   47.9940 C   0  0  0  0  0  0  0  0  0  0  0  0
  -32.8750    5.0900   47.6950 C   0  0  0  0  0  0  0  0  0  0  0  0
  -32.7820    3.9480   46.3960 S   0  0  0  0  0  0  0  0  0  0  0  0
  -34.5150    3.8630   46.2820 C   0  0  0  0  0  0  0  0  0  0  0  0
  -35.2330    3.0790   45.3960 C   0  0  0  0  0  0  0  0  0  0  0  0
  -31.6320    5.4840   48.3380 C   0  0  0  0  0  0  0  0  0  0  0  0
  -30.5780    4.9670   47.9550 O   0  0  0  0  0  0  0  0  0  0  0  0
  -31.6920    6.2760   49.4170 N   0  0  0  0  0  0  0  0  0  0  0  0
  -30.5990    6.6470   50.2320 C   0  0  0  0  0  0  0  0  0  0  0  0
  -29.6580    5.7120   50.6730 C   0  0  0  0  0  0  0  0  0  0  0  0
  -28.5910    6.0660   51.5280 C   0  0  0  0  0  0  0  0  0  0  0  0
  -28.4970    7.3730   51.9770 C   0  0  0  0  0  0  0  0  0  0  0  0
  -29.4650    8.3230   51.5700 C   0  0  0  0  0  0  0  0  0  0  0  0
  -29.6500    9.6620   51.8120 N   0  0  0  0  0  0  0  0  0  0  0  0
  -30.7600   10.1330   51.1550 C   0  0  0  0  0  0  0  0  0  0  0  0
  -31.3410    9.1440   50.4440 C   0  0  0  0  0  0  0  0  0  0  0  0
  -30.5230    7.9590   50.6900 C   0  0  0  0  0  0  0  0  0  0  0  0
  -37.3930    1.8740   44.1910 Br  0  0  0  0  0  0  0  0  0  0  0  0
  1  2  1  0  0  0  0
  2  3  2  0  0  0  0
  3  4  1  0  0  0  0
  4  5  1  0  0  0  0
  5  6  2  0  0  0  0
  6  7  1  0  0  0  0
  4  8  2  0  0  0  0
  7  8  1  0  0  0  0
  1  9  2  0  0  0  0
  8  9  1  0  0  0  0
  6 10  1  0  0  0  0
 10 11  2  0  0  0  0
 10 12  1  0  0  0  0
 12 13  1  0  0  0  0
 13 14  2  0  0  0  0
 14 15  1  0  0  0  0
 15 16  2  0  0  0  0
 16 17  1  0  0  0  0
 17 18  1  0  0  0  0
 18 19  1  0  0  0  0
 19 20  2  0  0  0  0
 13 21  1  0  0  0  0
 17 21  2  0  0  0  0
 20 21  1  0  0  0  0
  1 22  1  0  0  0  0
 23 24  1  0  0  0  0
 24 25  2  0  0  0  0
 25 26  1  0  0  0  0
 26 27  1  0  0  0  0
 27 28  2  0  0  0  0
 28 29  1  0  0  0  0
 26 30  2  0  0  0  0
 29 30  1  0  0  0  0
 23 31  2  0  0  0  0
 30 31  1  0  0  0  0
 28 32  1  0  0  0  0
 32 33  2  0  0  0  0
 32 34  1  0  0  0  0
 34 35  1  0  0  0  0
 35 36  2  0  0  0  0
 36 37  1  0  0  0  0
 37 38  2  0  0  0  0
 38 39  1  0  0  0  0
 39 40  1  0  0  0  0
 40 41  1  0  0  0  0
 41 42  2  0  0  0  0
 35 43  1  0  0  0  0
 39 43  2  0  0  0  0
 42 43  1  0  0  0  0
 23 44  1  0  0  0  0
M  END
$$$$
