7WIG
  PyMOL3.1          3D                             0

 40 45  0  0  0  0  0  0  0  0999 V2000
   91.3280  135.8540  118.9770 C   0  0  0  0  0  0  0  0  0  0  0  0
   92.5590  133.1300  118.8260 N   0  0  0  0  0  0  0  0  0  0  0  0
   93.4840  131.5070  120.2620 O   0  0  0  0  0  0  0  0  0  0  0  0
   91.2010  126.9710  118.5120 C   0  0  0  0  0  0  0  0  0  0  0  0
   92.4370  129.0660  118.8130 N   0  0  0  0  0  0  0  0  0  0  0  0
   93.4420  129.0230  116.8910 O   0  0  0  0  0  0  0  0  0  0  0  0
   91.2810  124.9690  117.0320 C   0  0  0  0  0  0  0  0  0  0  0  0
   94.1640  131.1850  118.2220 N   0  0  0  0  0  0  0  0  0  0  0  0
   91.2440  126.4200  117.1790 C   0  0  0  0  0  0  0  0  0  0  0  0
   92.3440  123.6250  115.2440 N   0  0  0  0  0  0  0  0  0  0  0  0
   91.3290  135.1920  117.5820 C   0  0  0  0  0  0  0  0  0  0  0  0
   95.8110  126.1270  118.0790 N   0  0  0  0  0  0  0  0  0  0  0  0
   91.0540  134.8060  120.0780 C   0  0  0  0  0  0  0  0  0  0  0  0
   92.4240  126.4520  119.1640 C   0  0  0  0  0  0  0  0  0  0  0  0
   92.4590  124.5000  117.7160 C   0  0  0  0  0  0  0  0  0  0  0  0
   92.4600  124.9600  119.1270 C   0  0  0  0  0  0  0  0  0  0  0  0
   90.3700  136.9610  119.0660 C   0  0  0  0  0  0  0  0  0  0  0  0
   92.2180  133.9470  117.5280 C   0  0  0  0  0  0  0  0  0  0  0  0
   91.9590  133.5800  119.9450 C   0  0  0  0  0  0  0  0  0  0  0  0
   91.2500  128.4320  118.3830 C   0  0  0  0  0  0  0  0  0  0  0  0
   92.5480  136.5980  119.2440 C   0  0  0  0  0  0  0  0  0  0  0  0
   91.3950  124.6360  115.5620 C   0  0  0  0  0  0  0  0  0  0  0  0
   90.9880  138.1660  119.3140 C   0  0  0  0  0  0  0  0  0  0  0  0
   92.4160  137.9160  119.4280 C   0  0  0  0  0  0  0  0  0  0  0  0
   89.0340  137.0580  118.8950 C   0  0  0  0  0  0  0  0  0  0  0  0
   93.4000  131.9320  119.1150 C   0  0  0  0  0  0  0  0  0  0  0  0
   94.8090  130.0630  118.5470 C   0  0  0  0  0  0  0  0  0  0  0  0
   90.3720  139.3750  119.4140 C   0  0  0  0  0  0  0  0  0  0  0  0
   93.5420  129.3150  118.0520 C   0  0  0  0  0  0  0  0  0  0  0  0
   88.3320  138.2180  118.9970 C   0  0  0  0  0  0  0  0  0  0  0  0
   95.8780  129.7150  117.6190 C   0  0  0  0  0  0  0  0  0  0  0  0
   88.9970  139.3940  119.2380 C   0  0  0  0  0  0  0  0  0  0  0  0
   95.9420  128.3210  117.6070 C   0  0  0  0  0  0  0  0  0  0  0  0
   96.3080  127.5900  116.4970 C   0  0  0  0  0  0  0  0  0  0  0  0
   95.6160  127.4180  118.5450 C   0  0  0  0  0  0  0  0  0  0  0  0
   96.2410  126.2670  116.7940 C   0  0  0  0  0  0  0  0  0  0  0  0
   96.6880  128.0160  115.3160 C   0  0  0  0  0  0  0  0  0  0  0  0
   96.5730  125.3730  115.8300 C   0  0  0  0  0  0  0  0  0  0  0  0
   97.0290  127.1430  114.3620 C   0  0  0  0  0  0  0  0  0  0  0  0
   96.9690  125.8110  114.6290 C   0  0  0  0  0  0  0  0  0  0  0  0
  1 11  1  0  0  0  0
  1 13  1  0  0  0  0
  1 17  1  0  0  0  0
  1 21  1  0  0  0  0
  4 14  1  0  0  0  0
  6 29  2  0  0  0  0
  7  9  1  0  0  0  0
  7 15  1  0  0  0  0
  7 22  1  0  0  0  0
  4  9  1  0  0  0  0
 11 18  1  0  0  0  0
 13 19  1  0  0  0  0
 15 16  1  0  0  0  0
 14 16  1  0  0  0  0
 17 23  4  0  0  0  0
 17 25  4  0  0  0  0
  2 18  1  0  0  0  0
  2 19  1  0  0  0  0
  4 20  1  0  0  0  0
  5 20  1  0  0  0  0
 21 24  1  0  0  0  0
 10 22  1  0  0  0  0
 23 24  1  0  0  0  0
 23 28  4  0  0  0  0
 25 30  4  0  0  0  0
  2 26  1  0  0  0  0
  3 26  2  0  0  0  0
  8 26  1  0  0  0  0
  8 27  1  0  0  0  0
 27 29  1  0  0  0  0
 27 31  1  0  0  0  0
  5 29  1  0  0  0  0
 30 32  4  0  0  0  0
 31 33  1  0  0  0  0
 28 32  4  0  0  0  0
 33 34  4  0  0  0  0
 33 35  4  0  0  0  0
 34 36  4  0  0  0  0
 34 37  4  0  0  0  0
 12 35  4  0  0  0  0
 12 36  4  0  0  0  0
 36 38  4  0  0  0  0
 37 39  4  0  0  0  0
 38 40  4  0  0  0  0
 39 40  4  0  0  0  0
M  END
$$$$
