8E9Y
  PyMOL3.1          3D                             0

 24 27  0  0  0  0  0  0  0  0999 V2000
  119.9220  115.5550   96.5280 Cl  0  0  0  0  0  0  0  0  0  0  0  0
  120.2220  116.8980   97.6610 C   0  0  0  0  0  0  0  0  0  0  0  0
  119.2270  117.8500   97.8980 C   0  0  0  0  0  0  0  0  0  0  0  0
  119.4500  118.9070   98.7850 C   0  0  0  0  0  0  0  0  0  0  0  0
  121.4400  116.9940   98.3040 C   0  0  0  0  0  0  0  0  0  0  0  0
  121.6510  118.0590   99.2130 C   0  0  0  0  0  0  0  0  0  0  0  0
  120.6960  119.0050   99.4330 C   0  0  0  0  0  0  0  0  0  0  0  0
  120.9500  120.1000  100.3790 N   0  0  0  0  0  0  0  0  0  0  0  0
  121.2980  119.8730  101.7910 C   0  0  0  0  0  0  0  0  0  0  0  0
  120.3850  120.3870  102.7490 C   0  0  0  0  0  0  0  0  0  0  0  0
  120.6440  120.1920  104.1020 C   0  0  0  0  0  0  0  0  0  0  0  0
  121.7920  119.4940  104.4990 C   0  0  0  0  0  0  0  0  0  0  0  0
  122.6750  118.9830  103.5500 C   0  0  0  0  0  0  0  0  0  0  0  0
  122.4180  119.1850  102.1690 C   0  0  0  0  0  0  0  0  0  0  0  0
  123.4290  118.6080  101.1290 C   0  0  0  0  0  0  0  0  0  0  0  0
  124.8750  118.5140  101.3170 N   0  0  0  0  0  0  0  0  0  0  0  0
  125.7600  117.9530  100.2570 C   0  0  0  0  0  0  0  0  0  0  0  0
  127.2260  118.3580  100.3890 C   0  0  0  0  0  0  0  0  0  0  0  0
  127.4520  119.6570  100.9250 N   0  0  0  0  0  0  0  0  0  0  0  0
  127.0830  120.6320   99.9170 C   0  0  0  0  0  0  0  0  0  0  0  0
  128.8750  119.7910  101.1900 O   0  0  0  0  0  0  0  0  0  0  0  0
  126.7570  119.9370  102.1270 C   0  0  0  0  0  0  0  0  0  0  0  0
  125.6990  118.9030  102.5020 C   0  0  0  0  0  0  0  0  0  0  0  0
  122.9710  118.1270   99.8460 N   0  0  0  0  0  0  0  0  0  0  0  0
  1  2  1  0  0  0  0
  2  3  4  0  0  0  0
  2  5  4  0  0  0  0
  3  4  4  0  0  0  0
  4  7  4  0  0  0  0
  5  6  4  0  0  0  0
  6  7  4  0  0  0  0
  7  8  1  0  0  0  0
  8  9  1  0  0  0  0
  9 10  4  0  0  0  0
 10 11  4  0  0  0  0
 11 12  4  0  0  0  0
 12 13  4  0  0  0  0
 13 14  4  0  0  0  0
  9 14  4  0  0  0  0
 14 15  1  0  0  0  0
 15 16  1  0  0  0  0
 15 24  1  0  0  0  0
 16 17  1  0  0  0  0
 17 18  1  0  0  0  0
 18 19  1  0  0  0  0
 19 21  1  0  0  0  0
 19 20  1  0  0  0  0
 19 22  1  0  0  0  0
 22 23  1  0  0  0  0
 16 23  1  0  0  0  0
  6 24  1  0  0  0  0
M  END
$$$$
