7XS6
  PyMOL3.1          3D                             0

 70 74  0  0  0  0  0  0  0  0999 V2000
  149.8570  115.2240  107.5430 C   0  0  0  0  0  0  0  0  0  0  0  0
  150.7030  114.2260  106.7610 C   0  0  0  0  0  0  0  0  0  0  0  0
  151.8140  113.6980  107.6370 C   0  0  0  0  0  0  0  0  0  0  0  0
  151.2530  112.6930  108.6620 C   0  0  0  0  0  0  0  0  0  0  0  0
  150.0510  111.8960  108.3290 N   0  0  0  0  0  0  0  0  0  0  0  0
  149.5060  110.9290  109.3150 C   0  0  0  0  0  0  0  0  0  0  0  0
  150.1820  110.7550  110.6660 C   0  0  0  0  0  0  0  0  0  0  0  0
  151.3900  111.5520  111.0040 C   0  0  0  0  0  0  0  0  0  0  0  0
  151.9360  112.5220  110.0130 C   0  0  0  0  0  0  0  0  0  0  0  0
  149.6650  109.8370  111.6030 O   0  0  0  0  0  0  0  0  0  0  0  0
  152.7360  113.0440  106.8280 O   0  0  0  0  0  0  0  0  0  0  0  0
  151.3210  114.9290  105.5440 C   0  0  0  0  0  0  0  0  0  0  0  0
  150.2020  115.4420  104.6380 C   0  0  0  0  0  0  0  0  0  0  0  0
  149.9650  116.5920  104.5780 O   0  0  0  0  0  0  0  0  0  0  0  0
  149.4220  114.4900  103.8350 N   0  0  0  0  0  0  0  0  0  0  0  0
  148.3150  114.9810  102.9430 C   0  0  0  0  0  0  0  0  0  0  0  0
  148.5880  114.5930  101.6050 C   0  0  0  0  0  0  0  0  0  0  0  0
  149.1850  115.7990  100.7580 C   0  0  0  0  0  0  0  0  0  0  0  0
  149.0100  115.4120   99.5900 C   0  0  0  0  0  0  0  0  0  0  0  0
  147.5290  114.6860   99.6210 C   0  0  0  0  0  0  0  0  0  0  0  0
  147.3340  114.2800  100.8430 O   0  0  0  0  0  0  0  0  0  0  0  0
  146.4860  115.5910   99.2580 N   0  0  0  0  0  0  0  0  0  0  0  0
  146.1720  116.7290  100.1070 C   0  0  0  0  0  0  0  0  0  0  0  0
  145.0750  117.6570   99.7180 C   0  0  0  0  0  0  0  0  0  0  0  0
  144.3040  117.4110   98.4770 C   0  0  0  0  0  0  0  0  0  0  0  0
  143.4380  118.1410   98.1720 O   0  0  0  0  0  0  0  0  0  0  0  0
  144.6100  116.2830   97.6410 N   0  0  0  0  0  0  0  0  0  0  0  0
  145.7000  115.3540   98.0150 C   0  0  0  0  0  0  0  0  0  0  0  0
  145.9400  114.4340   97.3250 O   0  0  0  0  0  0  0  0  0  0  0  0
  149.9780  114.3770   99.1860 O   0  0  0  0  0  0  0  0  0  0  0  0
  150.6330  116.0440  101.1100 O   0  0  0  0  0  0  0  0  0  0  0  0
  147.0040  114.3320  103.4590 C   0  0  0  0  0  0  0  0  0  0  0  0
  147.0090  113.1210  103.8100 O   0  5  0  0  0  0  0  0  0  0  0  0
  145.9450  114.9980  103.5320 O   0  0  0  0  0  0  0  0  0  0  0  0
  152.1200  116.0330  105.9930 N   0  0  0  0  0  0  0  0  0  0  0  0
  109.3380  143.9810  107.5790 C   0  0  0  0  0  0  0  0  0  0  0  0
  108.4920  144.9790  106.7970 C   0  0  0  0  0  0  0  0  0  0  0  0
  107.3830  145.5100  107.6730 C   0  0  0  0  0  0  0  0  0  0  0  0
  107.9470  146.5160  108.6960 C   0  0  0  0  0  0  0  0  0  0  0  0
  109.1500  147.3110  108.3600 N   0  0  0  0  0  0  0  0  0  0  0  0
  109.6970  148.2790  109.3430 C   0  0  0  0  0  0  0  0  0  0  0  0
  109.0230  148.4560  110.6950 C   0  0  0  0  0  0  0  0  0  0  0  0
  107.8140  147.6610  111.0360 C   0  0  0  0  0  0  0  0  0  0  0  0
  107.2660  146.6900  110.0470 C   0  0  0  0  0  0  0  0  0  0  0  0
  109.5430  149.3750  111.6300 O   0  0  0  0  0  0  0  0  0  0  0  0
  106.4610  146.1640  106.8640 O   0  0  0  0  0  0  0  0  0  0  0  0
  107.8720  144.2750  105.5820 C   0  0  0  0  0  0  0  0  0  0  0  0
  108.9890  143.7580  104.6750 C   0  0  0  0  0  0  0  0  0  0  0  0
  109.2240  142.6080  104.6170 O   0  0  0  0  0  0  0  0  0  0  0  0
  109.7690  144.7080  103.8700 N   0  0  0  0  0  0  0  0  0  0  0  0
  110.8740  144.2140  102.9770 C   0  0  0  0  0  0  0  0  0  0  0  0
  110.6000  144.6000  101.6390 C   0  0  0  0  0  0  0  0  0  0  0  0
  110.0000  143.3930  100.7950 C   0  0  0  0  0  0  0  0  0  0  0  0
  110.1750  143.7780   99.6260 C   0  0  0  0  0  0  0  0  0  0  0  0
  111.6570  144.5020   99.6530 C   0  0  0  0  0  0  0  0  0  0  0  0
  111.8540  144.9100  100.8750 O   0  0  0  0  0  0  0  0  0  0  0  0
  112.6980  143.5950   99.2910 N   0  0  0  0  0  0  0  0  0  0  0  0
  113.0110  142.4580  100.1410 C   0  0  0  0  0  0  0  0  0  0  0  0
  114.1060  141.5270   99.7530 C   0  0  0  0  0  0  0  0  0  0  0  0
  114.8760  141.7700   98.5100 C   0  0  0  0  0  0  0  0  0  0  0  0
  115.7410  141.0380   98.2050 O   0  0  0  0  0  0  0  0  0  0  0  0
  114.5710  142.8970   97.6730 N   0  0  0  0  0  0  0  0  0  0  0  0
  113.4830  143.8280   98.0460 C   0  0  0  0  0  0  0  0  0  0  0  0
  113.2430  144.7470   97.3550 O   0  0  0  0  0  0  0  0  0  0  0  0
  109.2070  144.8140   99.2210 O   0  0  0  0  0  0  0  0  0  0  0  0
  108.5530  143.1510  101.1490 O   0  0  0  0  0  0  0  0  0  0  0  0
  112.1870  144.8620  103.4900 C   0  0  0  0  0  0  0  0  0  0  0  0
  112.1840  146.0730  103.8390 O   0  5  0  0  0  0  0  0  0  0  0  0
  113.2450  144.1940  103.5630 O   0  0  0  0  0  0  0  0  0  0  0  0
  107.0720  143.1730  106.0340 N   0  0  0  0  0  0  0  0  0  0  0  0
  1  2  1  0  0  0  0
  2  3  1  0  0  0  0
  3  4  1  0  0  0  0
  4  5  1  0  0  0  0
  5  6  2  0  0  0  0
  6  7  1  0  0  0  0
  7  8  2  0  0  0  0
  4  9  2  0  0  0  0
  8  9  1  0  0  0  0
  7 10  1  0  0  0  0
  3 11  1  0  0  0  0
  2 12  1  0  0  0  0
 12 13  1  0  0  0  0
 13 14  2  0  0  0  0
 13 15  1  0  0  0  0
 15 16  1  0  0  0  0
 16 17  1  0  0  0  0
 17 18  1  0  0  0  0
 18 19  1  0  0  0  0
 19 20  1  0  0  0  0
 17 21  1  0  0  0  0
 20 21  1  0  0  0  0
 20 22  1  0  0  0  0
 22 23  1  0  0  0  0
 23 24  2  0  0  0  0
 24 25  1  0  0  0  0
 25 26  2  0  0  0  0
 25 27  1  0  0  0  0
 22 28  1  0  0  0  0
 27 28  1  0  0  0  0
 28 29  2  0  0  0  0
 19 30  1  0  0  0  0
 18 31  1  0  0  0  0
 16 32  1  0  0  0  0
 32 33  1  0  0  0  0
 32 34  2  0  0  0  0
 12 35  1  0  0  0  0
 36 37  1  0  0  0  0
 37 38  1  0  0  0  0
 38 39  1  0  0  0  0
 39 40  1  0  0  0  0
 40 41  2  0  0  0  0
 41 42  1  0  0  0  0
 42 43  2  0  0  0  0
 39 44  2  0  0  0  0
 43 44  1  0  0  0  0
 42 45  1  0  0  0  0
 38 46  1  0  0  0  0
 37 47  1  0  0  0  0
 47 48  1  0  0  0  0
 48 49  2  0  0  0  0
 48 50  1  0  0  0  0
 50 51  1  0  0  0  0
 51 52  1  0  0  0  0
 52 53  1  0  0  0  0
 53 54  1  0  0  0  0
 54 55  1  0  0  0  0
 52 56  1  0  0  0  0
 55 56  1  0  0  0  0
 55 57  1  0  0  0  0
 57 58  1  0  0  0  0
 58 59  2  0  0  0  0
 59 60  1  0  0  0  0
 60 61  2  0  0  0  0
 60 62  1  0  0  0  0
 57 63  1  0  0  0  0
 62 63  1  0  0  0  0
 63 64  2  0  0  0  0
 54 65  1  0  0  0  0
 53 66  1  0  0  0  0
 51 67  1  0  0  0  0
 67 68  1  0  0  0  0
 67 69  2  0  0  0  0
 47 70  1  0  0  0  0
M  END
$$$$
