6XCG
  PyMOL3.1          3D                             0

 33 37  0  0  0  0  0  0  0  0999 V2000
  -21.2270    4.6480   -2.2930 N   0  0  0  0  0  0  0  0  0  0  0  0
  -22.0140    5.7130   -2.0660 C   0  0  0  0  0  0  0  0  0  0  0  0
  -22.9200    6.0270   -2.8600 O   0  0  0  0  0  0  0  0  0  0  0  0
  -20.0530    4.3100   -1.4910 C   0  0  0  0  0  0  0  0  0  0  0  0
  -26.7120    0.0820   -1.6070 N   0  0  0  0  0  0  0  0  0  0  0  0
  -25.4630   -1.3940   -2.7490 O   0  0  0  0  0  0  0  0  0  0  0  0
  -18.7820    4.1800   -2.2510 C   0  0  0  0  0  0  0  0  0  0  0  0
  -29.8390   -2.1300   -0.0900 N   0  0  0  0  0  0  0  0  0  0  0  0
  -21.3400    6.2700    2.7280 O   0  0  0  0  0  0  0  0  0  0  0  0
  -18.9690    5.3090   -1.2910 C   0  0  0  0  0  0  0  0  0  0  0  0
  -28.7510   -0.0530   -0.5870 N   0  0  0  0  0  0  0  0  0  0  0  0
  -21.0820    9.2840    4.7030 O   0  0  0  0  0  0  0  0  0  0  0  0
  -21.5490    3.7600   -3.4100 C   0  0  0  0  0  0  0  0  0  0  0  0
  -21.2970    9.0190    2.4860 N   0  0  0  0  0  0  0  0  0  0  0  0
  -22.5910    2.7200   -3.0750 C   0  0  0  0  0  0  0  0  0  0  0  0
  -22.9080    1.7440   -4.0190 C   0  0  0  0  0  0  0  0  0  0  0  0
  -23.9270    0.8260   -3.7910 C   0  0  0  0  0  0  0  0  0  0  0  0
  -24.6440    0.8370   -2.5880 C   0  0  0  0  0  0  0  0  0  0  0  0
  -25.6210   -0.2730   -2.2920 C   0  0  0  0  0  0  0  0  0  0  0  0
  -27.6560   -0.7390   -0.9650 C   0  0  0  0  0  0  0  0  0  0  0  0
  -27.5820   -2.1210   -0.8720 C   0  0  0  0  0  0  0  0  0  0  0  0
  -28.7160   -2.7700   -0.4240 C   0  0  0  0  0  0  0  0  0  0  0  0
  -29.7850   -0.8040   -0.1870 C   0  0  0  0  0  0  0  0  0  0  0  0
  -24.3370    1.8300   -1.6400 C   0  0  0  0  0  0  0  0  0  0  0  0
  -23.3140    2.7450   -1.8780 C   0  0  0  0  0  0  0  0  0  0  0  0
  -21.7480    6.5670   -0.8670 C   0  0  0  0  0  0  0  0  0  0  0  0
  -21.5100    6.0210    0.3930 C   0  0  0  0  0  0  0  0  0  0  0  0
  -21.4040    6.8500    1.4830 C   0  0  0  0  0  0  0  0  0  0  0  0
  -21.1010    7.0190    3.8780 C   0  0  0  0  0  0  0  0  0  0  0  0
  -21.1560    8.5400    3.7330 C   0  0  0  0  0  0  0  0  0  0  0  0
  -21.4400    8.2220    1.3430 C   0  0  0  0  0  0  0  0  0  0  0  0
  -21.6290    8.7780    0.0950 C   0  0  0  0  0  0  0  0  0  0  0  0
  -21.8120    7.9500   -0.9980 C   0  0  0  0  0  0  0  0  0  0  0  0
  1  2  1  0  0  0  0
  2  3  2  0  0  0  0
  1  4  1  0  0  0  0
  4  7  1  0  0  0  0
  4 10  1  0  0  0  0
  7 10  1  0  0  0  0
  1 13  1  0  0  0  0
 13 15  1  0  0  0  0
 15 16  1  0  0  0  0
 16 17  2  0  0  0  0
 17 18  1  0  0  0  0
  5 19  1  0  0  0  0
  6 19  2  0  0  0  0
 18 19  1  0  0  0  0
  5 20  1  0  0  0  0
 11 20  1  0  0  0  0
 20 21  2  0  0  0  0
  8 22  2  0  0  0  0
 21 22  1  0  0  0  0
  8 23  1  0  0  0  0
 11 23  2  0  0  0  0
 18 24  2  0  0  0  0
 15 25  2  0  0  0  0
 24 25  1  0  0  0  0
  2 26  1  0  0  0  0
 26 27  1  0  0  0  0
  9 28  1  0  0  0  0
 27 28  2  0  0  0  0
  9 29  1  0  0  0  0
 12 30  2  0  0  0  0
 14 30  1  0  0  0  0
 29 30  1  0  0  0  0
 14 31  1  0  0  0  0
 28 31  1  0  0  0  0
 31 32  2  0  0  0  0
 26 33  2  0  0  0  0
 32 33  1  0  0  0  0
M  END
$$$$
