9EPY
  PyMOL3.1          3D                             0

 37 42  0  0  0  0  0  0  0  0999 V2000
   34.7160    4.7440   27.0480 Cl  0  0  0  0  0  0  0  0  0  0  0  0
   35.7920    4.5190   28.3910 C   0  0  0  0  0  0  0  0  0  0  0  0
   36.9870    3.8630   28.1590 C   0  0  0  0  0  0  0  0  0  0  0  0
   37.9260    3.7290   29.1740 C   0  0  0  0  0  0  0  0  0  0  0  0
   39.2480    3.0600   28.9070 C   0  0  0  0  0  0  0  0  0  0  0  0
   39.6910    2.1990   30.0520 N   0  3  0  0  0  0  0  0  0  0  0  0
   40.5970    1.0340   29.7530 C   0  0  0  0  0  0  0  0  0  0  0  0
   41.9710    1.2830   29.1300 C   0  0  0  0  0  0  0  0  0  0  0  0
   42.4800    0.0950   29.9770 C   0  0  0  0  0  0  0  0  0  0  0  0
   43.8880    0.3000   30.5580 C   0  0  0  0  0  0  0  0  0  0  0  0
   44.2380   -0.8350   31.5010 C   0  0  0  0  0  0  0  0  0  0  0  0
   44.2240   -2.0890   30.7290 N   0  0  0  0  0  0  0  0  0  0  0  0
   45.3100   -3.2770   31.0670 S   0  0  0  0  0  0  0  0  0  0  0  0
   44.8290   -4.0190   32.5810 C   0  0  0  0  0  0  0  0  0  0  0  0
   45.2060   -3.4090   33.7710 C   0  0  0  0  0  0  0  0  0  0  0  0
   44.6840   -3.9090   34.9500 C   0  0  0  0  0  0  0  0  0  0  0  0
   44.9250   -3.3480   36.5590 S   0  0  0  0  0  0  0  0  0  0  0  0
   43.8430   -4.5930   37.1290 C   0  0  0  0  0  0  0  0  0  0  0  0
   43.5280   -4.7070   38.5840 C   0  0  0  0  0  0  0  0  0  0  0  0
   43.3430   -5.3640   36.2200 N   0  0  0  0  0  0  0  0  0  0  0  0
   43.8080   -4.9970   34.9610 C   0  0  0  0  0  0  0  0  0  0  0  0
   43.4540   -5.6000   33.7530 C   0  0  0  0  0  0  0  0  0  0  0  0
   43.9660   -5.1110   32.5620 C   0  0  0  0  0  0  0  0  0  0  0  0
   45.1680   -4.2570   30.0410 O   0  0  0  0  0  0  0  0  0  0  0  0
   46.5750   -2.6450   31.2890 O   0  0  0  0  0  0  0  0  0  0  0  0
   42.8700   -2.4110   30.2410 C   0  0  0  0  0  0  0  0  0  0  0  0
   42.4010   -1.2960   29.3200 C   0  0  0  0  0  0  0  0  0  0  0  0
   41.3350    0.3980   30.9620 C   0  0  0  0  0  0  0  0  0  0  0  0
   37.6290    4.2610   30.4210 C   0  0  0  0  0  0  0  0  0  0  0  0
   36.4300    4.9150   30.6560 C   0  0  0  0  0  0  0  0  0  0  0  0
   35.4800    5.0600   29.6410 C   0  0  0  0  0  0  0  0  0  0  0  0
   34.2430    5.8390   29.9310 C   0  0  0  0  0  0  0  0  0  0  0  0
   34.2970    7.0110   30.6880 C   0  0  0  0  0  0  0  0  0  0  0  0
   33.1440    7.7270   30.9680 C   0  0  0  0  0  0  0  0  0  0  0  0
   31.9210    7.2910   30.5000 C   0  0  0  0  0  0  0  0  0  0  0  0
   31.8470    6.1370   29.7500 C   0  0  0  0  0  0  0  0  0  0  0  0
   32.9960    5.4130   29.4660 C   0  0  0  0  0  0  0  0  0  0  0  0
  1  2  1  0  0  0  0
  2  3  1  0  0  0  0
  3  4  2  0  0  0  0
  4  5  1  0  0  0  0
  5  6  1  0  0  0  0
  6  7  1  0  0  0  0
  7  8  1  0  0  0  0
  8  9  1  0  0  0  0
  9 10  1  0  0  0  0
 10 11  1  0  0  0  0
 11 12  1  0  0  0  0
 12 13  1  0  0  0  0
 13 14  1  0  0  0  0
 14 15  2  0  0  0  0
 15 16  1  0  0  0  0
 16 17  1  0  0  0  0
 17 18  1  0  0  0  0
 18 19  1  0  0  0  0
 18 20  2  0  0  0  0
 16 21  2  0  0  0  0
 20 21  1  0  0  0  0
 21 22  1  0  0  0  0
 14 23  1  0  0  0  0
 22 23  2  0  0  0  0
 13 24  2  0  0  0  0
 13 25  2  0  0  0  0
 12 26  1  0  0  0  0
  9 27  1  0  0  0  0
 26 27  1  0  0  0  0
  7 28  1  0  0  0  0
  9 28  1  0  0  0  0
  4 29  1  0  0  0  0
 29 30  2  0  0  0  0
  2 31  2  0  0  0  0
 30 31  1  0  0  0  0
 31 32  1  0  0  0  0
 32 33  2  0  0  0  0
 33 34  1  0  0  0  0
 34 35  2  0  0  0  0
 35 36  1  0  0  0  0
 32 37  1  0  0  0  0
 36 37  2  0  0  0  0
M  END
$$$$
