9EPY
  PyMOL3.1          3D                             0

 37 42  0  0  0  0  0  0  0  0999 V2000
    4.1180   37.0470   33.8790 Cl  0  0  0  0  0  0  0  0  0  0  0  0
    3.5130   37.7540   32.4150 C   0  0  0  0  0  0  0  0  0  0  0  0
    2.5700   38.7600   32.5220 C   0  0  0  0  0  0  0  0  0  0  0  0
    2.1390   39.4420   31.3920 C   0  0  0  0  0  0  0  0  0  0  0  0
    1.0670   40.4950   31.4920 C   0  0  0  0  0  0  0  0  0  0  0  0
    0.9830   41.3080   30.2390 N   0  3  0  0  0  0  0  0  0  0  0  0
    0.2900   42.6420   30.2050 C   0  0  0  0  0  0  0  0  0  0  0  0
   -0.4020   43.1680   31.4260 C   0  0  0  0  0  0  0  0  0  0  0  0
   -1.3830   43.8380   30.4370 C   0  0  0  0  0  0  0  0  0  0  0  0
   -0.9990   45.2650   30.0110 C   0  0  0  0  0  0  0  0  0  0  0  0
   -1.9850   45.8310   29.0060 C   0  0  0  0  0  0  0  0  0  0  0  0
   -3.3430   45.8010   29.5830 N   0  0  0  0  0  0  0  0  0  0  0  0
   -4.4920   46.8190   28.9860 S   0  0  0  0  0  0  0  0  0  0  0  0
   -5.1610   46.0790   27.5350 C   0  0  0  0  0  0  0  0  0  0  0  0
   -4.5500   46.3220   26.3080 C   0  0  0  0  0  0  0  0  0  0  0  0
   -5.1060   45.7520   25.1720 C   0  0  0  0  0  0  0  0  0  0  0  0
   -4.6000   45.8960   23.5160 S   0  0  0  0  0  0  0  0  0  0  0  0
   -5.9480   44.8940   23.0430 C   0  0  0  0  0  0  0  0  0  0  0  0
   -6.1970   44.6180   21.6090 C   0  0  0  0  0  0  0  0  0  0  0  0
   -6.7110   44.4770   24.0040 N   0  0  0  0  0  0  0  0  0  0  0  0
   -6.2520   44.9550   25.2390 C   0  0  0  0  0  0  0  0  0  0  0  0
   -6.8460   44.7230   26.4820 C   0  0  0  0  0  0  0  0  0  0  0  0
   -6.3010   45.2840   27.6310 C   0  0  0  0  0  0  0  0  0  0  0  0
   -5.5370   46.8690   29.9610 O   0  0  0  0  0  0  0  0  0  0  0  0
   -3.8210   48.0220   28.6020 O   0  0  0  0  0  0  0  0  0  0  0  0
   -3.7730   44.4250   29.8900 C   0  0  0  0  0  0  0  0  0  0  0  0
   -2.8430   43.8180   30.9210 C   0  0  0  0  0  0  0  0  0  0  0  0
   -1.0180   42.7390   29.4210 C   0  0  0  0  0  0  0  0  0  0  0  0
    2.6790   39.0820   30.1640 C   0  0  0  0  0  0  0  0  0  0  0  0
    3.6180   38.0720   30.0590 C   0  0  0  0  0  0  0  0  0  0  0  0
    4.0480   37.3760   31.1840 C   0  0  0  0  0  0  0  0  0  0  0  0
    4.8800   36.1610   30.9690 C   0  0  0  0  0  0  0  0  0  0  0  0
    4.3770   34.8940   31.2670 C   0  0  0  0  0  0  0  0  0  0  0  0
    5.1170   33.7560   30.9880 C   0  0  0  0  0  0  0  0  0  0  0  0
    6.3670   33.8610   30.4110 C   0  0  0  0  0  0  0  0  0  0  0  0
    6.8790   35.1070   30.1100 C   0  0  0  0  0  0  0  0  0  0  0  0
    6.1450   36.2500   30.3860 C   0  0  0  0  0  0  0  0  0  0  0  0
  1  2  1  0  0  0  0
  2  3  1  0  0  0  0
  3  4  2  0  0  0  0
  4  5  1  0  0  0  0
  5  6  1  0  0  0  0
  6  7  1  0  0  0  0
  7  8  1  0  0  0  0
  8  9  1  0  0  0  0
  9 10  1  0  0  0  0
 10 11  1  0  0  0  0
 11 12  1  0  0  0  0
 12 13  1  0  0  0  0
 13 14  1  0  0  0  0
 14 15  2  0  0  0  0
 15 16  1  0  0  0  0
 16 17  1  0  0  0  0
 17 18  1  0  0  0  0
 18 19  1  0  0  0  0
 18 20  2  0  0  0  0
 16 21  2  0  0  0  0
 20 21  1  0  0  0  0
 21 22  1  0  0  0  0
 14 23  1  0  0  0  0
 22 23  2  0  0  0  0
 13 24  2  0  0  0  0
 13 25  2  0  0  0  0
 12 26  1  0  0  0  0
  9 27  1  0  0  0  0
 26 27  1  0  0  0  0
  7 28  1  0  0  0  0
  9 28  1  0  0  0  0
  4 29  1  0  0  0  0
 29 30  2  0  0  0  0
  2 31  2  0  0  0  0
 30 31  1  0  0  0  0
 31 32  1  0  0  0  0
 32 33  2  0  0  0  0
 33 34  1  0  0  0  0
 34 35  2  0  0  0  0
 35 36  1  0  0  0  0
 32 37  1  0  0  0  0
 36 37  2  0  0  0  0
M  END
$$$$
