6SLO
  PyMOL3.1          3D                             0

 31 34  0  0  0  0  0  0  0  0999 V2000
   48.8650   33.7020   53.2240 C   0  0  0  0  0  0  0  0  0  0  0  0
   48.9680   38.7630   54.8670 C   0  0  0  0  0  0  0  0  0  0  0  0
   56.7410   34.1990   55.5060 C   0  0  0  0  0  0  0  0  0  0  0  0
   55.9750   34.1020   54.3410 C   0  0  0  0  0  0  0  0  0  0  0  0
   51.3220   35.1110   52.7990 C   0  0  0  0  0  0  0  0  0  0  0  0
   55.6930   36.4140   56.0880 C   0  0  0  0  0  0  0  0  0  0  0  0
   51.3260   37.3790   54.5400 C   0  0  0  0  0  0  0  0  0  0  0  0
   57.7280   43.5330   48.9450 C   0  0  0  0  0  0  0  0  0  0  0  0
   53.9170   39.8180   54.0840 C   0  0  0  0  0  0  0  0  0  0  0  0
   56.3170   43.1820   49.4230 C   0  0  0  0  0  0  0  0  0  0  0  0
   55.2680   39.7620   53.2300 C   0  0  0  0  0  0  0  0  0  0  0  0
   56.0000   41.1200   50.0130 C   0  0  0  0  0  0  0  0  0  0  0  0
   55.6190   42.8560   51.4610 C   0  0  0  0  0  0  0  0  0  0  0  0
   55.9760   40.1220   51.1820 C   0  0  0  0  0  0  0  0  0  0  0  0
   55.5340   41.8400   52.6370 C   0  0  0  0  0  0  0  0  0  0  0  0
   53.9220   38.7170   55.1620 C   0  0  0  0  0  0  0  0  0  0  0  0
   56.5680   35.3450   56.3240 C   0  0  0  0  0  0  0  0  0  0  0  0
   50.1150   35.6730   53.2790 C   0  0  0  0  0  0  0  0  0  0  0  0
   50.1100   36.7970   54.1450 C   0  0  0  0  0  0  0  0  0  0  0  0
   55.0910   35.1870   54.0750 C   0  0  0  0  0  0  0  0  0  0  0  0
   52.5510   35.7100   53.1970 C   0  0  0  0  0  0  0  0  0  0  0  0
   58.1630   43.0540   47.9540 O   0  0  0  0  0  0  0  0  0  0  0  0
   48.8920   35.0680   52.8830 O   0  0  0  0  0  0  0  0  0  0  0  0
   48.8920   37.3670   54.6420 O   0  0  0  0  0  0  0  0  0  0  0  0
   54.1150   35.0960   52.6690 S   0  0  0  0  0  0  0  0  0  0  0  0
   54.9300   36.2970   54.8980 C   0  0  0  0  0  0  0  0  0  0  0  0
   52.5350   36.8130   54.0410 C   0  0  0  0  0  0  0  0  0  0  0  0
   56.3750   42.3830   50.4180 N   0  0  0  0  0  0  0  0  0  0  0  0
   55.1970   40.5780   52.2300 N   0  0  0  0  0  0  0  0  0  0  0  0
   53.9030   37.4080   54.4790 N   0  0  0  0  0  0  0  0  0  0  0  0
   57.5330   35.4220   57.7670 Cl  0  0  0  0  0  0  0  0  0  0  0  0
  3  4  1  0  0  0  0
  8 10  1  0  0  0  0
  9 11  1  0  0  0  0
 12 14  1  0  0  0  0
 13 15  1  0  0  0  0
  9 16  1  0  0  0  0
  3 17  2  0  0  0  0
  6 17  1  0  0  0  0
  5 18  1  0  0  0  0
  7 19  1  0  0  0  0
 18 19  2  0  0  0  0
  4 20  2  0  0  0  0
  5 21  2  0  0  0  0
  8 22  1  0  0  0  0
  1 23  1  0  0  0  0
 18 23  1  0  0  0  0
  2 24  1  0  0  0  0
 19 24  1  0  0  0  0
 20 25  1  0  0  0  0
 21 25  1  0  0  0  0
  6 26  2  0  0  0  0
 20 26  1  0  0  0  0
  7 27  2  0  0  0  0
 21 27  1  0  0  0  0
 10 28  1  0  0  0  0
 12 28  1  0  0  0  0
 13 28  1  0  0  0  0
 11 29  1  0  0  0  0
 14 29  1  0  0  0  0
 15 29  1  0  0  0  0
 16 30  1  0  0  0  0
 26 30  1  0  0  0  0
 27 30  1  0  0  0  0
 17 31  1  0  0  0  0
M  END
$$$$
