8GDL
  PyMOL3.1          3D                             0

 26 28  0  0  0  0  0  0  0  0999 V2000
   -5.6140  -10.3540    7.0940 C   0  0  0  0  0  0  0  0  0  0  0  0
   -4.6280   -9.1950    6.8860 C   0  0  0  0  0  0  0  0  0  0  0  0
   -4.8180   -8.2120    8.0330 C   0  0  0  0  0  0  0  0  0  0  0  0
   -5.4760   -7.0070    7.8570 C   0  0  0  0  0  0  0  0  0  0  0  0
   -4.4760   -8.3200    9.3340 C   0  0  0  0  0  0  0  0  0  0  0  0
   -4.8770   -7.1860    9.9890 C   0  0  0  0  0  0  0  0  0  0  0  0
   -3.8050   -9.3420   10.0100 C   0  0  0  0  0  0  0  0  0  0  0  0
   -5.4860   -6.3790    9.0670 N   0  0  0  0  0  0  0  0  0  0  0  0
   -4.6360   -7.0470   11.3660 C   0  0  0  0  0  0  0  0  0  0  0  0
   -3.5600   -9.2010   11.3620 C   0  0  0  0  0  0  0  0  0  0  0  0
   -5.4570  -11.2950    5.9830 N   0  0  0  0  0  0  0  0  0  0  0  0
   -3.9610   -8.0520   12.0430 C   0  0  0  0  0  0  0  0  0  0  0  0
   -2.9070  -10.1920   12.0880 O   0  0  0  0  0  0  0  0  0  0  0  0
   16.6610    2.0480   49.6850 C   0  0  0  0  0  0  0  0  0  0  0  0
   17.6510    0.9030   49.9420 C   0  0  0  0  0  0  0  0  0  0  0  0
   17.4900   -0.0890   48.7880 C   0  0  0  0  0  0  0  0  0  0  0  0
   16.8920   -1.3230   48.9810 C   0  0  0  0  0  0  0  0  0  0  0  0
   17.8430    0.0220   47.4840 C   0  0  0  0  0  0  0  0  0  0  0  0
   17.4780   -1.1240   46.8420 C   0  0  0  0  0  0  0  0  0  0  0  0
   18.4890    1.0700   46.7950 C   0  0  0  0  0  0  0  0  0  0  0  0
   16.9110   -1.9600   47.7760 N   0  0  0  0  0  0  0  0  0  0  0  0
   17.7280   -1.2630   45.4640 C   0  0  0  0  0  0  0  0  0  0  0  0
   18.7280    0.9300   45.4460 C   0  0  0  0  0  0  0  0  0  0  0  0
   16.8370    3.0390   50.7260 N   0  0  0  0  0  0  0  0  0  0  0  0
   18.3650   -0.2360   44.7770 C   0  0  0  0  0  0  0  0  0  0  0  0
   19.3720    1.9400   44.7070 O   0  0  0  0  0  0  0  0  0  0  0  0
  1  2  1  0  0  0  0
  2  3  1  0  0  0  0
  3  4  2  0  0  0  0
  3  5  1  0  0  0  0
  5  6  2  0  0  0  0
  5  7  1  0  0  0  0
  4  8  1  0  0  0  0
  6  8  1  0  0  0  0
  6  9  1  0  0  0  0
  7 10  2  0  0  0  0
  1 11  1  0  0  0  0
  9 12  2  0  0  0  0
 10 12  1  0  0  0  0
 10 13  1  0  0  0  0
 14 15  1  0  0  0  0
 15 16  1  0  0  0  0
 16 17  2  0  0  0  0
 16 18  1  0  0  0  0
 18 19  2  0  0  0  0
 18 20  1  0  0  0  0
 17 21  1  0  0  0  0
 19 21  1  0  0  0  0
 19 22  1  0  0  0  0
 20 23  2  0  0  0  0
 14 24  1  0  0  0  0
 22 25  2  0  0  0  0
 23 25  1  0  0  0  0
 23 26  1  0  0  0  0
M  END
$$$$
