7XS6
  PyMOL3.1          3D                             0

 35 37  0  0  0  0  0  0  0  0999 V2000
  109.3380  143.9810  107.5790 C   0  0  0  0  0  0  0  0  0  0  0  0
  108.4920  144.9790  106.7970 C   0  0  0  0  0  0  0  0  0  0  0  0
  107.3830  145.5100  107.6730 C   0  0  0  0  0  0  0  0  0  0  0  0
  107.9470  146.5160  108.6960 C   0  0  0  0  0  0  0  0  0  0  0  0
  109.1500  147.3110  108.3600 N   0  0  0  0  0  0  0  0  0  0  0  0
  109.6970  148.2790  109.3430 C   0  0  0  0  0  0  0  0  0  0  0  0
  109.0230  148.4560  110.6950 C   0  0  0  0  0  0  0  0  0  0  0  0
  107.8140  147.6610  111.0360 C   0  0  0  0  0  0  0  0  0  0  0  0
  107.2660  146.6900  110.0470 C   0  0  0  0  0  0  0  0  0  0  0  0
  109.5430  149.3750  111.6300 O   0  0  0  0  0  0  0  0  0  0  0  0
  106.4610  146.1640  106.8640 O   0  0  0  0  0  0  0  0  0  0  0  0
  107.8720  144.2750  105.5820 C   0  0  0  0  0  0  0  0  0  0  0  0
  108.9890  143.7580  104.6750 C   0  0  0  0  0  0  0  0  0  0  0  0
  109.2240  142.6080  104.6170 O   0  0  0  0  0  0  0  0  0  0  0  0
  109.7690  144.7080  103.8700 N   0  0  0  0  0  0  0  0  0  0  0  0
  110.8740  144.2140  102.9770 C   0  0  0  0  0  0  0  0  0  0  0  0
  110.6000  144.6000  101.6390 C   0  0  0  0  0  0  0  0  0  0  0  0
  110.0000  143.3930  100.7950 C   0  0  0  0  0  0  0  0  0  0  0  0
  110.1750  143.7780   99.6260 C   0  0  0  0  0  0  0  0  0  0  0  0
  111.6570  144.5020   99.6530 C   0  0  0  0  0  0  0  0  0  0  0  0
  111.8540  144.9100  100.8750 O   0  0  0  0  0  0  0  0  0  0  0  0
  112.6980  143.5950   99.2910 N   0  0  0  0  0  0  0  0  0  0  0  0
  113.0110  142.4580  100.1410 C   0  0  0  0  0  0  0  0  0  0  0  0
  114.1060  141.5270   99.7530 C   0  0  0  0  0  0  0  0  0  0  0  0
  114.8760  141.7700   98.5100 C   0  0  0  0  0  0  0  0  0  0  0  0
  115.7410  141.0380   98.2050 O   0  0  0  0  0  0  0  0  0  0  0  0
  114.5710  142.8970   97.6730 N   0  0  0  0  0  0  0  0  0  0  0  0
  113.4830  143.8280   98.0460 C   0  0  0  0  0  0  0  0  0  0  0  0
  113.2430  144.7470   97.3550 O   0  0  0  0  0  0  0  0  0  0  0  0
  109.2070  144.8140   99.2210 O   0  0  0  0  0  0  0  0  0  0  0  0
  108.5530  143.1510  101.1490 O   0  0  0  0  0  0  0  0  0  0  0  0
  112.1870  144.8620  103.4900 C   0  0  0  0  0  0  0  0  0  0  0  0
  112.1840  146.0730  103.8390 O   0  5  0  0  0  0  0  0  0  0  0  0
  113.2450  144.1940  103.5630 O   0  0  0  0  0  0  0  0  0  0  0  0
  107.0720  143.1730  106.0340 N   0  0  0  0  0  0  0  0  0  0  0  0
  1  2  1  0  0  0  0
  2  3  1  0  0  0  0
  3  4  1  0  0  0  0
  4  5  1  0  0  0  0
  5  6  2  0  0  0  0
  6  7  1  0  0  0  0
  7  8  2  0  0  0  0
  4  9  2  0  0  0  0
  8  9  1  0  0  0  0
  7 10  1  0  0  0  0
  3 11  1  0  0  0  0
  2 12  1  0  0  0  0
 12 13  1  0  0  0  0
 13 14  2  0  0  0  0
 13 15  1  0  0  0  0
 15 16  1  0  0  0  0
 16 17  1  0  0  0  0
 17 18  1  0  0  0  0
 18 19  1  0  0  0  0
 19 20  1  0  0  0  0
 17 21  1  0  0  0  0
 20 21  1  0  0  0  0
 20 22  1  0  0  0  0
 22 23  1  0  0  0  0
 23 24  2  0  0  0  0
 24 25  1  0  0  0  0
 25 26  2  0  0  0  0
 25 27  1  0  0  0  0
 22 28  1  0  0  0  0
 27 28  1  0  0  0  0
 28 29  2  0  0  0  0
 19 30  1  0  0  0  0
 18 31  1  0  0  0  0
 16 32  1  0  0  0  0
 32 33  1  0  0  0  0
 32 34  2  0  0  0  0
 12 35  1  0  0  0  0
M  END
$$$$
