7XS6
  PyMOL3.1          3D                             0

 35 37  0  0  0  0  0  0  0  0999 V2000
  149.8570  115.2240  107.5430 C   0  0  0  0  0  0  0  0  0  0  0  0
  150.7030  114.2260  106.7610 C   0  0  0  0  0  0  0  0  0  0  0  0
  151.8140  113.6980  107.6370 C   0  0  0  0  0  0  0  0  0  0  0  0
  151.2530  112.6930  108.6620 C   0  0  0  0  0  0  0  0  0  0  0  0
  150.0510  111.8960  108.3290 N   0  0  0  0  0  0  0  0  0  0  0  0
  149.5060  110.9290  109.3150 C   0  0  0  0  0  0  0  0  0  0  0  0
  150.1820  110.7550  110.6660 C   0  0  0  0  0  0  0  0  0  0  0  0
  151.3900  111.5520  111.0040 C   0  0  0  0  0  0  0  0  0  0  0  0
  151.9360  112.5220  110.0130 C   0  0  0  0  0  0  0  0  0  0  0  0
  149.6650  109.8370  111.6030 O   0  0  0  0  0  0  0  0  0  0  0  0
  152.7360  113.0440  106.8280 O   0  0  0  0  0  0  0  0  0  0  0  0
  151.3210  114.9290  105.5440 C   0  0  0  0  0  0  0  0  0  0  0  0
  150.2020  115.4420  104.6380 C   0  0  0  0  0  0  0  0  0  0  0  0
  149.9650  116.5920  104.5780 O   0  0  0  0  0  0  0  0  0  0  0  0
  149.4220  114.4900  103.8350 N   0  0  0  0  0  0  0  0  0  0  0  0
  148.3150  114.9810  102.9430 C   0  0  0  0  0  0  0  0  0  0  0  0
  148.5880  114.5930  101.6050 C   0  0  0  0  0  0  0  0  0  0  0  0
  149.1850  115.7990  100.7580 C   0  0  0  0  0  0  0  0  0  0  0  0
  149.0100  115.4120   99.5900 C   0  0  0  0  0  0  0  0  0  0  0  0
  147.5290  114.6860   99.6210 C   0  0  0  0  0  0  0  0  0  0  0  0
  147.3340  114.2800  100.8430 O   0  0  0  0  0  0  0  0  0  0  0  0
  146.4860  115.5910   99.2580 N   0  0  0  0  0  0  0  0  0  0  0  0
  146.1720  116.7290  100.1070 C   0  0  0  0  0  0  0  0  0  0  0  0
  145.0750  117.6570   99.7180 C   0  0  0  0  0  0  0  0  0  0  0  0
  144.3040  117.4110   98.4770 C   0  0  0  0  0  0  0  0  0  0  0  0
  143.4380  118.1410   98.1720 O   0  0  0  0  0  0  0  0  0  0  0  0
  144.6100  116.2830   97.6410 N   0  0  0  0  0  0  0  0  0  0  0  0
  145.7000  115.3540   98.0150 C   0  0  0  0  0  0  0  0  0  0  0  0
  145.9400  114.4340   97.3250 O   0  0  0  0  0  0  0  0  0  0  0  0
  149.9780  114.3770   99.1860 O   0  0  0  0  0  0  0  0  0  0  0  0
  150.6330  116.0440  101.1100 O   0  0  0  0  0  0  0  0  0  0  0  0
  147.0040  114.3320  103.4590 C   0  0  0  0  0  0  0  0  0  0  0  0
  147.0090  113.1210  103.8100 O   0  5  0  0  0  0  0  0  0  0  0  0
  145.9450  114.9980  103.5320 O   0  0  0  0  0  0  0  0  0  0  0  0
  152.1200  116.0330  105.9930 N   0  0  0  0  0  0  0  0  0  0  0  0
  1  2  1  0  0  0  0
  2  3  1  0  0  0  0
  3  4  1  0  0  0  0
  4  5  1  0  0  0  0
  5  6  2  0  0  0  0
  6  7  1  0  0  0  0
  7  8  2  0  0  0  0
  4  9  2  0  0  0  0
  8  9  1  0  0  0  0
  7 10  1  0  0  0  0
  3 11  1  0  0  0  0
  2 12  1  0  0  0  0
 12 13  1  0  0  0  0
 13 14  2  0  0  0  0
 13 15  1  0  0  0  0
 15 16  1  0  0  0  0
 16 17  1  0  0  0  0
 17 18  1  0  0  0  0
 18 19  1  0  0  0  0
 19 20  1  0  0  0  0
 17 21  1  0  0  0  0
 20 21  1  0  0  0  0
 20 22  1  0  0  0  0
 22 23  1  0  0  0  0
 23 24  2  0  0  0  0
 24 25  1  0  0  0  0
 25 26  2  0  0  0  0
 25 27  1  0  0  0  0
 22 28  1  0  0  0  0
 27 28  1  0  0  0  0
 28 29  2  0  0  0  0
 19 30  1  0  0  0  0
 18 31  1  0  0  0  0
 16 32  1  0  0  0  0
 32 33  1  0  0  0  0
 32 34  2  0  0  0  0
 12 35  1  0  0  0  0
M  END
$$$$
