8EWA
  PyMOL3.1          3D                             0

 80 88  0  0  0  0  0  0  0  0999 V2000
   17.6886  -11.7225   23.0805 C   0  0  0  0  0  0  0  0  0  0  0  0
   17.0199  -11.8170   21.7962 N   0  0  0  0  0  0  0  0  0  0  0  0
   16.6394  -12.8170   20.9698 C   0  0  0  0  0  0  0  0  0  0  0  0
   16.8148  -14.3224   21.2129 C   0  0  0  0  0  0  0  0  0  0  0  0
   16.0288  -14.7602   22.4734 C   0  0  0  0  0  0  0  0  0  0  0  0
   18.3062  -14.6688   21.4467 C   0  0  0  0  0  0  0  0  0  0  0  0
   16.3580  -15.1405   19.9973 C   0  0  0  0  0  0  0  0  0  0  0  0
   16.0353  -12.2083   19.8881 C   0  0  0  0  0  0  0  0  0  0  0  0
   16.1056  -10.8088   20.1438 C   0  0  0  0  0  0  0  0  0  0  0  0
   15.6349   -9.7917   19.3121 N   0  0  0  0  0  0  0  0  0  0  0  0
   14.9893   -9.7049   18.1210 C   0  0  0  0  0  0  0  0  0  0  0  0
   14.4691   -8.5176   17.5889 C   0  0  0  0  0  0  0  0  0  0  0  0
   13.8621   -8.6363   16.3430 C   0  0  0  0  0  0  0  0  0  0  0  0
   13.4333   -7.4186   15.9939 N   0  0  0  0  0  0  0  0  0  0  0  0
   13.7496   -6.4750   16.9831 N   0  0  0  0  0  0  0  0  0  0  0  0
   14.3725   -7.1258   17.9218 C   0  0  0  0  0  0  0  0  0  0  0  0
   13.7101   -9.7520   15.6311 N   0  0  0  0  0  0  0  0  0  0  0  0
   14.2305  -10.8262   16.2253 C   0  0  0  0  0  0  0  0  0  0  0  0
   14.1011  -11.9850   15.5565 N   0  0  0  0  0  0  0  0  0  0  0  0
   14.6141  -13.2551   16.0463 C   0  0  0  0  0  0  0  0  0  0  0  0
   16.0355  -13.3644   15.5092 C   0  0  0  0  0  0  0  0  0  0  0  0
   16.9048  -14.2868   16.0913 C   0  0  0  0  0  0  0  0  0  0  0  0
   18.2034  -14.3960   15.6264 C   0  0  0  0  0  0  0  0  0  0  0  0
   18.6538  -13.5910   14.5854 C   0  0  0  0  0  0  0  0  0  0  0  0
   17.7971  -12.6631   14.0178 C   0  0  0  0  0  0  0  0  0  0  0  0
   16.4988  -12.5559   14.4826 C   0  0  0  0  0  0  0  0  0  0  0  0
   13.6405  -14.3169   15.5629 C   0  0  0  0  0  0  0  0  0  0  0  0
   14.0196  -15.5123   16.2741 O   0  0  0  0  0  0  0  0  0  0  0  0
   13.3237  -16.6346   15.9903 C   0  0  0  0  0  0  0  0  0  0  0  0
   14.0082  -17.7604   16.2946 N   0  0  0  0  0  0  0  0  0  0  0  0
   13.5893  -19.1007   15.8811 C   0  0  0  0  0  0  0  0  0  0  0  0
   13.2319  -19.7842   17.1926 C   0  0  0  0  0  0  0  0  0  0  0  0
   12.5408  -21.1355   17.0347 C   0  0  0  0  0  0  0  0  0  0  0  0
   11.0989  -20.8620   16.8853 N   0  0  0  0  0  0  0  0  0  0  0  0
   14.4885  -19.9545   17.9023 O   0  0  0  0  0  0  0  0  0  0  0  0
   15.0722  -18.6861   18.3071 C   0  0  0  0  0  0  0  0  0  0  0  0
   15.2199  -17.7189   17.1280 C   0  0  0  0  0  0  0  0  0  0  0  0
   12.2111  -16.5823   15.5001 O   0  0  0  0  0  0  0  0  0  0  0  0
   14.8674  -10.8438   17.4146 N   0  0  0  0  0  0  0  0  0  0  0  0
   16.7042  -10.5711   21.2665 N   0  0  0  0  0  0  0  0  0  0  0  0
  -36.9474    3.8064   26.4548 C   0  0  0  0  0  0  0  0  0  0  0  0
  -36.7210    2.6665   27.3612 N   0  0  0  0  0  0  0  0  0  0  0  0
  -37.1335    1.3685   27.4494 C   0  0  0  0  0  0  0  0  0  0  0  0
  -38.1032    0.6763   26.4919 C   0  0  0  0  0  0  0  0  0  0  0  0
  -37.6608    0.8601   25.0425 C   0  0  0  0  0  0  0  0  0  0  0  0
  -39.4761    1.3519   26.6820 C   0  0  0  0  0  0  0  0  0  0  0  0
  -38.2617   -0.8182   26.8420 C   0  0  0  0  0  0  0  0  0  0  0  0
  -36.5209    0.8074   28.5642 C   0  0  0  0  0  0  0  0  0  0  0  0
  -35.7307    1.8625   29.1217 C   0  0  0  0  0  0  0  0  0  0  0  0
  -34.9302    1.8077   30.2689 N   0  0  0  0  0  0  0  0  0  0  0  0
  -34.5521    0.8604   31.1489 C   0  0  0  0  0  0  0  0  0  0  0  0
  -33.5424    0.9970   32.1016 C   0  0  0  0  0  0  0  0  0  0  0  0
  -33.2903   -0.1321   32.8888 C   0  0  0  0  0  0  0  0  0  0  0  0
  -32.2918    0.1899   33.7332 N   0  0  0  0  0  0  0  0  0  0  0  0
  -31.8929    1.5262   33.5298 N   0  0  0  0  0  0  0  0  0  0  0  0
  -32.6294    2.0079   32.5574 C   0  0  0  0  0  0  0  0  0  0  0  0
  -33.9208   -1.3013   32.8143 N   0  0  0  0  0  0  0  0  0  0  0  0
  -34.8593   -1.3367   31.8584 C   0  0  0  0  0  0  0  0  0  0  0  0
  -35.5443   -2.4972   31.7087 N   0  0  0  0  0  0  0  0  0  0  0  0
  -36.7609   -2.6524   30.8877 C   0  0  0  0  0  0  0  0  0  0  0  0
  -37.9823   -1.9894   31.4925 C   0  0  0  0  0  0  0  0  0  0  0  0
  -39.0930   -1.7825   30.6644 C   0  0  0  0  0  0  0  0  0  0  0  0
  -40.2617   -1.2006   31.1477 C   0  0  0  0  0  0  0  0  0  0  0  0
  -40.3409   -0.8646   32.4887 C   0  0  0  0  0  0  0  0  0  0  0  0
  -39.2544   -1.0918   33.3149 C   0  0  0  0  0  0  0  0  0  0  0  0
  -38.0891   -1.6632   32.8360 C   0  0  0  0  0  0  0  0  0  0  0  0
  -37.0711   -4.1292   30.9284 C   0  0  0  0  0  0  0  0  0  0  0  0
  -36.1163   -4.8099   30.0926 O   0  0  0  0  0  0  0  0  0  0  0  0
  -36.4869   -6.0824   29.7649 C   0  0  0  0  0  0  0  0  0  0  0  0
  -35.5291   -6.7891   29.1351 N   0  0  0  0  0  0  0  0  0  0  0  0
  -35.7420   -8.1130   28.5322 C   0  0  0  0  0  0  0  0  0  0  0  0
  -34.8578   -9.1459   29.2301 C   0  0  0  0  0  0  0  0  0  0  0  0
  -34.8555  -10.4767   28.4922 C   0  0  0  0  0  0  0  0  0  0  0  0
  -33.8733  -11.3775   29.1081 N   0  0  0  0  0  0  0  0  0  0  0  0
  -33.4826   -8.6706   29.2289 O   0  0  0  0  0  0  0  0  0  0  0  0
  -33.3095   -7.3766   29.8682 C   0  0  0  0  0  0  0  0  0  0  0  0
  -34.1355   -6.3219   29.1225 C   0  0  0  0  0  0  0  0  0  0  0  0
  -37.5972   -6.4994   30.0495 O   0  0  0  0  0  0  0  0  0  0  0  0
  -35.1968   -0.3052   31.0563 N   0  0  0  0  0  0  0  0  0  0  0  0
  -35.8575    2.9512   28.4125 N   0  0  0  0  0  0  0  0  0  0  0  0
  1  2  1  0  0  0  0
  2  3  1  0  0  0  0
  3  4  1  0  0  0  0
  4  5  1  0  0  0  0
  4  6  1  0  0  0  0
  4  7  1  0  0  0  0
  3  8  2  0  0  0  0
  8  9  1  0  0  0  0
  9 10  1  0  0  0  0
 10 11  1  0  0  0  0
 11 12  1  0  0  0  0
 12 13  2  0  0  0  0
 13 14  1  0  0  0  0
 14 15  1  0  0  0  0
 12 16  1  0  0  0  0
 15 16  2  0  0  0  0
 13 17  1  0  0  0  0
 17 18  2  0  0  0  0
 18 19  1  0  0  0  0
 19 20  1  0  0  0  0
 20 21  1  0  0  0  0
 21 22  2  0  0  0  0
 22 23  1  0  0  0  0
 23 24  2  0  0  0  0
 24 25  1  0  0  0  0
 21 26  1  0  0  0  0
 25 26  2  0  0  0  0
 20 27  1  0  0  0  0
 27 28  1  0  0  0  0
 28 29  1  0  0  0  0
 29 30  1  0  0  0  0
 30 31  1  0  0  0  0
 31 32  1  0  0  0  0
 32 33  1  0  0  0  0
 33 34  1  0  0  0  0
 32 35  1  0  0  0  0
 35 36  1  0  0  0  0
 30 37  1  0  0  0  0
 36 37  1  0  0  0  0
 29 38  2  0  0  0  0
 11 39  2  0  0  0  0
 18 39  1  0  0  0  0
  2 40  1  0  0  0  0
  9 40  2  0  0  0  0
 41 42  1  0  0  0  0
 42 43  1  0  0  0  0
 43 44  1  0  0  0  0
 44 45  1  0  0  0  0
 44 46  1  0  0  0  0
 44 47  1  0  0  0  0
 43 48  2  0  0  0  0
 48 49  1  0  0  0  0
 49 50  1  0  0  0  0
 50 51  1  0  0  0  0
 51 52  1  0  0  0  0
 52 53  2  0  0  0  0
 53 54  1  0  0  0  0
 54 55  1  0  0  0  0
 52 56  1  0  0  0  0
 55 56  2  0  0  0  0
 53 57  1  0  0  0  0
 57 58  2  0  0  0  0
 58 59  1  0  0  0  0
 59 60  1  0  0  0  0
 60 61  1  0  0  0  0
 61 62  2  0  0  0  0
 62 63  1  0  0  0  0
 63 64  2  0  0  0  0
 64 65  1  0  0  0  0
 61 66  1  0  0  0  0
 65 66  2  0  0  0  0
 60 67  1  0  0  0  0
 67 68  1  0  0  0  0
 68 69  1  0  0  0  0
 69 70  1  0  0  0  0
 70 71  1  0  0  0  0
 71 72  1  0  0  0  0
 72 73  1  0  0  0  0
 73 74  1  0  0  0  0
 72 75  1  0  0  0  0
 75 76  1  0  0  0  0
 70 77  1  0  0  0  0
 76 77  1  0  0  0  0
 69 78  2  0  0  0  0
 51 79  2  0  0  0  0
 58 79  1  0  0  0  0
 42 80  1  0  0  0  0
 49 80  2  0  0  0  0
M  END
$$$$
