6ZA8
  PyMOL3.1          3D                             0

 64 67  0  0  0  0  0  0  0  0999 V2000
   22.8350  -14.3310   15.1070 N   0  0  0  0  0  0  0  0  0  0  0  0
   22.7580  -14.6190   13.8020 C   0  0  0  0  0  0  0  0  0  0  0  0
   22.1640  -13.9070   12.9940 O   0  0  0  0  0  0  0  0  0  0  0  0
   27.0790  -14.8420    6.2710 Cl  0  0  0  0  0  0  0  0  0  0  0  0
   22.1440  -13.1730   15.6490 C   0  0  0  0  0  0  0  0  0  0  0  0
   23.4860  -16.1610   12.0610 N   0  0  0  0  0  0  0  0  0  0  0  0
   22.1450  -10.9150   14.9630 O   0  0  0  0  0  0  0  0  0  0  0  0
   21.8790  -13.3500   17.1460 C   0  0  0  0  0  0  0  0  0  0  0  0
   24.2450  -17.3040   12.0050 N   0  0  0  0  0  0  0  0  0  0  0  0
   24.1230  -11.7950   15.5200 O   0  0  0  0  0  0  0  0  0  0  0  0
   20.7070  -12.5400   17.6870 C   0  0  0  0  0  0  0  0  0  0  0  0
   24.7190  -18.9330    8.1190 N   0  0  0  0  0  0  0  0  0  0  0  0
   27.3540  -17.6960   12.7410 O   0  0  0  0  0  0  0  0  0  0  0  0
   19.3880  -13.1500   17.2310 C   0  0  0  0  0  0  0  0  0  0  0  0
   23.5680  -20.0660   14.1680 O   0  0  0  0  0  0  0  0  0  0  0  0
   20.7660  -12.4210   19.2070 C   0  0  0  0  0  0  0  0  0  0  0  0
   22.9170  -11.8900   15.3780 C   0  0  0  0  0  0  0  0  0  0  0  0
   23.4620  -15.8490   13.3660 C   0  0  0  0  0  0  0  0  0  0  0  0
   24.6700  -17.7040   13.2440 C   0  0  0  0  0  0  0  0  0  0  0  0
   25.4910  -18.9190   13.4560 C   0  0  0  0  0  0  0  0  0  0  0  0
   26.8720  -18.8950   13.1910 C   0  0  0  0  0  0  0  0  0  0  0  0
   28.7060  -17.6350   12.2800 C   0  0  0  0  0  0  0  0  0  0  0  0
   27.6450  -20.0320   13.3840 C   0  0  0  0  0  0  0  0  0  0  0  0
   27.0490  -21.2020   13.8250 C   0  0  0  0  0  0  0  0  0  0  0  0
   25.6910  -21.2540   14.0860 C   0  0  0  0  0  0  0  0  0  0  0  0
   24.9130  -20.1180   13.9150 C   0  0  0  0  0  0  0  0  0  0  0  0
   23.0590  -20.8460   15.2530 C   0  0  0  0  0  0  0  0  0  0  0  0
   24.1780  -16.7760   14.1400 C   0  0  0  0  0  0  0  0  0  0  0  0
   24.4920  -17.8440   10.7030 C   0  0  0  0  0  0  0  0  0  0  0  0
   25.1110  -17.0810    9.6710 C   0  0  0  0  0  0  0  0  0  0  0  0
   25.6550  -15.7820    9.8490 C   0  0  0  0  0  0  0  0  0  0  0  0
   26.2450  -15.1170    8.8160 C   0  0  0  0  0  0  0  0  0  0  0  0
   26.3110  -15.7090    7.5700 C   0  0  0  0  0  0  0  0  0  0  0  0
   25.8040  -16.9550    7.3300 C   0  0  0  0  0  0  0  0  0  0  0  0
   25.1950  -17.6730    8.3850 C   0  0  0  0  0  0  0  0  0  0  0  0
   24.1710  -19.5980    9.1220 C   0  0  0  0  0  0  0  0  0  0  0  0
   24.0350  -19.1120   10.4110 C   0  0  0  0  0  0  0  0  0  0  0  0
   21.1840  -13.0720   15.1440 H   0  0  0  0  0  0  0  0  0  0  0  0
   23.3730  -14.8940   15.7580 H   0  0  0  0  0  0  0  0  0  0  0  0
   22.7790  -13.1310   17.7170 H   0  0  0  0  0  0  0  0  0  0  0  0
   21.6910  -14.4070   17.3280 H   0  0  0  0  0  0  0  0  0  0  0  0
   20.7590  -11.5340   17.2730 H   0  0  0  0  0  0  0  0  0  0  0  0
   18.8660  -13.6840   18.0250 H   0  0  0  0  0  0  0  0  0  0  0  0
   18.6970  -12.3950   16.8490 H   0  0  0  0  0  0  0  0  0  0  0  0
   19.5300  -13.8670   16.4220 H   0  0  0  0  0  0  0  0  0  0  0  0
   20.6270  -11.3900   19.5390 H   0  0  0  0  0  0  0  0  0  0  0  0
   20.0360  -13.0240   19.7470 H   0  0  0  0  0  0  0  0  0  0  0  0
   21.7330  -12.7380   19.6010 H   0  0  0  0  0  0  0  0  0  0  0  0
   22.6480  -10.0940   14.7680 H   0  0  0  0  0  0  0  0  0  0  0  0
   28.5830  -17.1310   11.3220 H   0  0  0  0  0  0  0  0  0  0  0  0
   29.3300  -17.0200   12.9280 H   0  0  0  0  0  0  0  0  0  0  0  0
   29.1990  -18.5870   12.0890 H   0  0  0  0  0  0  0  0  0  0  0  0
   28.7200  -20.0710   13.2220 H   0  0  0  0  0  0  0  0  0  0  0  0
   27.6530  -22.0970   13.9700 H   0  0  0  0  0  0  0  0  0  0  0  0
   25.2570  -22.1990   14.4090 H   0  0  0  0  0  0  0  0  0  0  0  0
   22.5640  -20.1090   15.8820 H   0  0  0  0  0  0  0  0  0  0  0  0
   22.3290  -21.6030   14.9710 H   0  0  0  0  0  0  0  0  0  0  0  0
   23.8470  -21.3260   15.8320 H   0  0  0  0  0  0  0  0  0  0  0  0
   24.3360  -16.7970   15.2170 H   0  0  0  0  0  0  0  0  0  0  0  0
   25.6070  -15.3120   10.8300 H   0  0  0  0  0  0  0  0  0  0  0  0
   26.6850  -14.1330    8.9640 H   0  0  0  0  0  0  0  0  0  0  0  0
   25.8650  -17.3990    6.3370 H   0  0  0  0  0  0  0  0  0  0  0  0
   23.8130  -20.5960    8.8720 H   0  0  0  0  0  0  0  0  0  0  0  0
   23.5720  -19.7290   11.1800 H   0  0  0  0  0  0  0  0  0  0  0  0
  1  2  1  0  0  0  0
  2  3  2  0  0  0  0
  1  5  1  0  0  0  0
  5  8  1  0  0  0  0
  6  9  1  0  0  0  0
  8 11  1  0  0  0  0
 11 14  1  0  0  0  0
 11 16  1  0  0  0  0
  5 17  1  0  0  0  0
  7 17  1  0  0  0  0
 10 17  2  0  0  0  0
  2 18  1  0  0  0  0
  6 18  2  0  0  0  0
  9 19  1  0  0  0  0
 19 20  1  0  0  0  0
 13 21  1  0  0  0  0
 20 21  1  0  0  0  0
 13 22  1  0  0  0  0
 21 23  2  0  0  0  0
 23 24  1  0  0  0  0
 24 25  2  0  0  0  0
 15 26  1  0  0  0  0
 20 26  2  0  0  0  0
 25 26  1  0  0  0  0
 15 27  1  0  0  0  0
 18 28  1  0  0  0  0
 19 28  2  0  0  0  0
  9 29  1  0  0  0  0
 29 30  2  0  0  0  0
 30 31  1  0  0  0  0
 31 32  2  0  0  0  0
  4 33  1  0  0  0  0
 32 33  1  0  0  0  0
 33 34  2  0  0  0  0
 12 35  2  0  0  0  0
 30 35  1  0  0  0  0
 34 35  1  0  0  0  0
 12 36  1  0  0  0  0
 29 37  1  0  0  0  0
 36 37  2  0  0  0  0
  5 38  1  0  0  0  0
  1 39  1  0  0  0  0
  8 40  1  0  0  0  0
  8 41  1  0  0  0  0
 11 42  1  0  0  0  0
 14 43  1  0  0  0  0
 14 44  1  0  0  0  0
 14 45  1  0  0  0  0
 16 46  1  0  0  0  0
 16 47  1  0  0  0  0
 16 48  1  0  0  0  0
  7 49  1  0  0  0  0
 22 50  1  0  0  0  0
 22 51  1  0  0  0  0
 22 52  1  0  0  0  0
 23 53  1  0  0  0  0
 24 54  1  0  0  0  0
 25 55  1  0  0  0  0
 27 56  1  0  0  0  0
 27 57  1  0  0  0  0
 27 58  1  0  0  0  0
 28 59  1  0  0  0  0
 31 60  1  0  0  0  0
 32 61  1  0  0  0  0
 34 62  1  0  0  0  0
 36 63  1  0  0  0  0
 37 64  1  0  0  0  0
M  END
$$$$
