8WSM
  PyMOL3.1          3D                             0

 30 32  0  0  0  0  0  0  0  0999 V2000
   13.9970   37.5590  128.1150 N   0  0  0  0  0  0  0  0  0  0  0  0
   14.5250   36.8460  129.1660 C   0  0  0  0  0  0  0  0  0  0  0  0
   13.9880   36.7630  130.2620 O   0  0  0  0  0  0  0  0  0  0  0  0
   15.7770   36.1270  128.8450 C   0  0  0  0  0  0  0  0  0  0  0  0
   16.6040   35.5980  129.8230 N   0  0  0  0  0  0  0  0  0  0  0  0
   17.4670   35.1250  127.7810 O   0  0  0  0  0  0  0  0  0  0  0  0
   16.3010   35.8240  127.6130 C   0  0  0  0  0  0  0  0  0  0  0  0
   18.6820   34.3660  129.5950 N   0  0  0  0  0  0  0  0  0  0  0  0
   12.5610   39.5150  128.8930 O   0  0  0  0  0  0  0  0  0  0  0  0
   17.5780   35.0360  129.1290 C   0  0  0  0  0  0  0  0  0  0  0  0
   12.4640   38.7500  126.4560 N   0  0  0  0  0  0  0  0  0  0  0  0
   11.5110   37.2510  128.3660 O   0  0  0  0  0  0  0  0  0  0  0  0
   19.5420   33.5090  128.9130 C   0  0  0  0  0  0  0  0  0  0  0  0
   10.2890   39.7160  124.6760 O   0  0  0  0  0  0  0  0  0  0  0  0
   20.2070   34.0080  127.7810 C   0  0  0  0  0  0  0  0  0  0  0  0
   21.0950   33.1900  127.0610 C   0  0  0  0  0  0  0  0  0  0  0  0
   21.3310   31.8700  127.4900 C   0  0  0  0  0  0  0  0  0  0  0  0
   20.6740   31.3670  128.6240 C   0  0  0  0  0  0  0  0  0  0  0  0
   19.7800   32.1810  129.3470 C   0  0  0  0  0  0  0  0  0  0  0  0
   21.8160   33.7170  125.8380 C   0  0  0  0  0  0  0  0  0  0  0  0
   19.0890   31.5990  130.5700 C   0  0  0  0  0  0  0  0  0  0  0  0
   11.6880   37.9280  125.5110 C   0  0  0  0  0  0  0  0  0  0  0  0
   11.2050   38.7030  124.2830 C   0  0  0  0  0  0  0  0  0  0  0  0
   10.8370   41.0110  124.8400 C   0  0  0  0  0  0  0  0  0  0  0  0
   11.6300   41.1180  126.1440 C   0  0  0  0  0  0  0  0  0  0  0  0
   12.8220   40.1510  126.1710 C   0  0  0  0  0  0  0  0  0  0  0  0
   21.0300   34.5580  125.1730 F   0  0  0  0  0  0  0  0  0  0  0  0
   22.9030   34.3640  126.2430 F   0  0  0  0  0  0  0  0  0  0  0  0
   22.1640   32.7400  125.0050 F   0  0  0  0  0  0  0  0  0  0  0  0
   12.4890   38.2950  128.1040 S   0  0  0  0  0  0  0  0  0  0  0  0
  1  2  1  0  0  0  0
  2  3  2  0  0  0  0
  2  4  1  0  0  0  0
  4  5  1  0  0  0  0
  4  7  2  0  0  0  0
  6  7  1  0  0  0  0
  5 10  2  0  0  0  0
  6 10  1  0  0  0  0
  8 10  1  0  0  0  0
  8 13  1  0  0  0  0
 13 15  2  0  0  0  0
 15 16  1  0  0  0  0
 16 17  2  0  0  0  0
 17 18  1  0  0  0  0
 13 19  1  0  0  0  0
 18 19  2  0  0  0  0
 16 20  1  0  0  0  0
 19 21  1  0  0  0  0
 11 22  1  0  0  0  0
 14 23  1  0  0  0  0
 22 23  1  0  0  0  0
 14 24  1  0  0  0  0
 24 25  1  0  0  0  0
 11 26  1  0  0  0  0
 25 26  1  0  0  0  0
 20 27  1  0  0  0  0
 20 28  1  0  0  0  0
 20 29  1  0  0  0  0
  1 30  1  0  0  0  0
  9 30  2  0  0  0  0
 11 30  1  0  0  0  0
 12 30  2  0  0  0  0
M  END
$$$$
