8BSU
  PyMOL3.1          3D                             0

 16 18  0  0  0  0  0  0  0  0999 V2000
   -3.8720   29.6450   -8.0990 C   0  0  0  0  0  0  0  0  0  0  0  0
   -3.3990   29.2070   -9.3510 C   0  0  0  0  0  0  0  0  0  0  0  0
   -2.6840   27.8290   -6.9860 C   0  0  0  0  0  0  0  0  0  0  0  0
   -2.5310   28.9810  -12.9600 C   0  0  0  0  0  0  0  0  0  0  0  0
   -3.8880   28.3960  -12.5640 C   0  0  0  0  0  0  0  0  0  0  0  0
   -0.8790   26.7020  -10.6560 C   0  0  0  0  0  0  0  0  0  0  0  0
   -3.5170   28.9620   -6.9270 C   0  0  0  0  0  0  0  0  0  0  0  0
   -2.5620   28.0690   -9.4540 C   0  0  0  0  0  0  0  0  0  0  0  0
   -2.2230   27.3960   -8.2390 C   0  0  0  0  0  0  0  0  0  0  0  0
   -2.5830   27.7260  -12.0770 C   0  0  0  0  0  0  0  0  0  0  0  0
   -1.1140   25.5050   -9.8380 N   0  0  0  0  0  0  0  0  0  0  0  0
   -2.0740   27.5910  -10.6450 N   0  0  0  0  0  0  0  0  0  0  0  0
    0.1930   26.3900   -7.7780 O   0  0  0  0  0  0  0  0  0  0  0  0
   -1.7650   24.8650   -7.4230 O   0  0  0  0  0  0  0  0  0  0  0  0
   -1.1900   25.9900   -8.2820 S   0  0  0  0  0  0  0  0  0  0  0  0
   -3.9770   29.3930   -5.7200 F   0  0  0  0  0  0  0  0  0  0  0  0
  1  2  1  0  0  0  0
  4  5  1  0  0  0  0
  1  7  2  0  0  0  0
  3  7  1  0  0  0  0
  2  8  2  0  0  0  0
  3  9  2  0  0  0  0
  8  9  1  0  0  0  0
  4 10  1  0  0  0  0
  5 10  1  0  0  0  0
  6 11  1  0  0  0  0
  6 12  1  0  0  0  0
  8 12  1  0  0  0  0
 10 12  1  0  0  0  0
  9 15  1  0  0  0  0
 11 15  1  0  0  0  0
 13 15  2  0  0  0  0
 14 15  2  0  0  0  0
  7 16  1  0  0  0  0
M  END
$$$$
