8BSU
  PyMOL3.1          3D                             0

 16 18  0  0  0  0  0  0  0  0999 V2000
  -46.2980  -28.8740  -28.1630 C   0  0  0  0  0  0  0  0  0  0  0  0
  -45.1040  -28.5000  -28.8070 C   0  0  0  0  0  0  0  0  0  0  0  0
  -47.3360  -26.7560  -28.7910 C   0  0  0  0  0  0  0  0  0  0  0  0
  -41.8650  -28.7090  -30.1630 C   0  0  0  0  0  0  0  0  0  0  0  0
  -41.7500  -28.0230  -28.8000 C   0  0  0  0  0  0  0  0  0  0  0  0
  -43.9350  -25.7480  -31.1220 C   0  0  0  0  0  0  0  0  0  0  0  0
  -47.4020  -28.0120  -28.1560 C   0  0  0  0  0  0  0  0  0  0  0  0
  -44.9950  -27.2450  -29.4550 C   0  0  0  0  0  0  0  0  0  0  0  0
  -46.1400  -26.3870  -29.4280 C   0  0  0  0  0  0  0  0  0  0  0  0
  -42.4070  -27.2830  -29.9860 C   0  0  0  0  0  0  0  0  0  0  0  0
  -44.5080  -24.5230  -30.5530 N   0  0  0  0  0  0  0  0  0  0  0  0
  -43.8570  -26.8230  -30.0960 N   0  0  0  0  0  0  0  0  0  0  0  0
  -46.8910  -24.8790  -31.5000 O   0  0  0  0  0  0  0  0  0  0  0  0
  -46.6080  -23.7370  -29.2810 O   0  0  0  0  0  0  0  0  0  0  0  0
  -46.0750  -24.8270  -30.2120 S   0  0  0  0  0  0  0  0  0  0  0  0
  -48.5520  -28.3910  -27.5320 F   0  0  0  0  0  0  0  0  0  0  0  0
  1  2  1  0  0  0  0
  4  5  1  0  0  0  0
  1  7  2  0  0  0  0
  3  7  1  0  0  0  0
  2  8  2  0  0  0  0
  3  9  2  0  0  0  0
  8  9  1  0  0  0  0
  4 10  1  0  0  0  0
  5 10  1  0  0  0  0
  6 11  1  0  0  0  0
  6 12  1  0  0  0  0
  8 12  1  0  0  0  0
 10 12  1  0  0  0  0
  9 15  1  0  0  0  0
 11 15  1  0  0  0  0
 13 15  2  0  0  0  0
 14 15  2  0  0  0  0
  7 16  1  0  0  0  0
M  END
$$$$
