8BSU
  PyMOL3.1          3D                             0

 16 18  0  0  0  0  0  0  0  0999 V2000
   -7.7460   29.0420   -6.9240 C   0  0  0  0  0  0  0  0  0  0  0  0
   -8.1460   29.1500   -5.5790 C   0  0  0  0  0  0  0  0  0  0  0  0
   -7.8460   26.6080   -6.7920 C   0  0  0  0  0  0  0  0  0  0  0  0
   -9.2750   30.5320   -2.4620 C   0  0  0  0  0  0  0  0  0  0  0  0
   -7.7540   30.3770   -2.4760 C   0  0  0  0  0  0  0  0  0  0  0  0
   -9.4970   26.8620   -2.8980 C   0  0  0  0  0  0  0  0  0  0  0  0
   -7.5990   27.7840   -7.5230 C   0  0  0  0  0  0  0  0  0  0  0  0
   -8.4030   27.9920   -4.8070 C   0  0  0  0  0  0  0  0  0  0  0  0
   -8.2410   26.7240   -5.4510 C   0  0  0  0  0  0  0  0  0  0  0  0
   -8.6610   29.1240   -2.4340 C   0  0  0  0  0  0  0  0  0  0  0  0
   -8.6720   25.6490   -2.9940 N   0  0  0  0  0  0  0  0  0  0  0  0
   -8.7940   28.0320   -3.4940 N   0  0  0  0  0  0  0  0  0  0  0  0
   -9.8470   24.6200   -5.0600 O   0  0  0  0  0  0  0  0  0  0  0  0
   -7.3840   24.2680   -4.7710 O   0  0  0  0  0  0  0  0  0  0  0  0
   -8.5420   25.2450   -4.5740 S   0  0  0  0  0  0  0  0  0  0  0  0
   -7.2160   27.6910   -8.8250 F   0  0  0  0  0  0  0  0  0  0  0  0
  1  2  1  0  0  0  0
  4  5  1  0  0  0  0
  1  7  2  0  0  0  0
  3  7  1  0  0  0  0
  2  8  2  0  0  0  0
  3  9  2  0  0  0  0
  8  9  1  0  0  0  0
  4 10  1  0  0  0  0
  5 10  1  0  0  0  0
  6 11  1  0  0  0  0
  6 12  1  0  0  0  0
  8 12  1  0  0  0  0
 10 12  1  0  0  0  0
  9 15  1  0  0  0  0
 11 15  1  0  0  0  0
 13 15  2  0  0  0  0
 14 15  2  0  0  0  0
  7 16  1  0  0  0  0
M  END
$$$$
