8BSU
  PyMOL3.1          3D                             0

 16 18  0  0  0  0  0  0  0  0999 V2000
  -21.8470  -19.7930  -55.8960 C   0  0  0  0  0  0  0  0  0  0  0  0
  -22.3710  -20.3090  -54.6960 C   0  0  0  0  0  0  0  0  0  0  0  0
  -23.0820  -21.4540  -57.1860 C   0  0  0  0  0  0  0  0  0  0  0  0
  -23.2370  -20.5440  -51.2860 C   0  0  0  0  0  0  0  0  0  0  0  0
  -22.0100  -21.4200  -51.5440 C   0  0  0  0  0  0  0  0  0  0  0  0
  -25.0280  -22.7960  -53.6530 C   0  0  0  0  0  0  0  0  0  0  0  0
  -22.1990  -20.3580  -57.1300 C   0  0  0  0  0  0  0  0  0  0  0  0
  -23.2610  -21.4120  -54.7080 C   0  0  0  0  0  0  0  0  0  0  0  0
  -23.5980  -21.9680  -55.9830 C   0  0  0  0  0  0  0  0  0  0  0  0
  -23.3900  -21.8360  -52.1040 C   0  0  0  0  0  0  0  0  0  0  0  0
  -24.8400  -23.9260  -54.5710 N   0  0  0  0  0  0  0  0  0  0  0  0
  -23.7990  -21.9600  -53.5710 N   0  0  0  0  0  0  0  0  0  0  0  0
  -26.0440  -22.8390  -56.6020 O   0  0  0  0  0  0  0  0  0  0  0  0
  -24.1190  -24.3980  -57.0110 O   0  0  0  0  0  0  0  0  0  0  0  0
  -24.6920  -23.3250  -56.0840 S   0  0  0  0  0  0  0  0  0  0  0  0
  -21.6860  -19.8470  -58.2840 F   0  0  0  0  0  0  0  0  0  0  0  0
  1  2  1  0  0  0  0
  4  5  1  0  0  0  0
  1  7  2  0  0  0  0
  3  7  1  0  0  0  0
  2  8  2  0  0  0  0
  3  9  2  0  0  0  0
  8  9  1  0  0  0  0
  4 10  1  0  0  0  0
  5 10  1  0  0  0  0
  6 11  1  0  0  0  0
  6 12  1  0  0  0  0
  8 12  1  0  0  0  0
 10 12  1  0  0  0  0
  9 15  1  0  0  0  0
 11 15  1  0  0  0  0
 13 15  2  0  0  0  0
 14 15  2  0  0  0  0
  7 16  1  0  0  0  0
M  END
$$$$
