8BSU
  PyMOL3.1          3D                             0

 16 18  0  0  0  0  0  0  0  0999 V2000
   20.6550   21.7260  -40.9980 C   0  0  0  0  0  0  0  0  0  0  0  0
   21.9070   21.7210  -41.6380 C   0  0  0  0  0  0  0  0  0  0  0  0
   20.5080   24.1480  -41.2350 C   0  0  0  0  0  0  0  0  0  0  0  0
   24.9080   20.6040  -43.3850 C   0  0  0  0  0  0  0  0  0  0  0  0
   25.0830   20.7330  -41.8710 C   0  0  0  0  0  0  0  0  0  0  0  0
   24.0720   24.1660  -43.5450 C   0  0  0  0  0  0  0  0  0  0  0  0
   19.9610   22.9270  -40.7980 C   0  0  0  0  0  0  0  0  0  0  0  0
   22.4940   22.9280  -42.0890 C   0  0  0  0  0  0  0  0  0  0  0  0
   21.7600   24.1360  -41.8680 C   0  0  0  0  0  0  0  0  0  0  0  0
   24.8840   21.9980  -42.7390 C   0  0  0  0  0  0  0  0  0  0  0  0
   23.9820   25.4050  -42.7590 N   0  0  0  0  0  0  0  0  0  0  0  0
   23.7150   22.9820  -42.7150 N   0  0  0  0  0  0  0  0  0  0  0  0
   21.6420   26.1270  -43.6360 O   0  0  0  0  0  0  0  0  0  0  0  0
   22.3030   26.7210  -41.2950 O   0  0  0  0  0  0  0  0  0  0  0  0
   22.4080   25.6680  -42.3990 S   0  0  0  0  0  0  0  0  0  0  0  0
   18.7480   22.9190  -40.1800 F   0  0  0  0  0  0  0  0  0  0  0  0
  1  2  1  0  0  0  0
  4  5  1  0  0  0  0
  1  7  2  0  0  0  0
  3  7  1  0  0  0  0
  2  8  2  0  0  0  0
  3  9  2  0  0  0  0
  8  9  1  0  0  0  0
  4 10  1  0  0  0  0
  5 10  1  0  0  0  0
  6 11  1  0  0  0  0
  6 12  1  0  0  0  0
  8 12  1  0  0  0  0
 10 12  1  0  0  0  0
  9 15  1  0  0  0  0
 11 15  1  0  0  0  0
 13 15  2  0  0  0  0
 14 15  2  0  0  0  0
  7 16  1  0  0  0  0
M  END
$$$$
