8BSU
  PyMOL3.1          3D                             0

 16 18  0  0  0  0  0  0  0  0999 V2000
  -17.9530  -20.4300  -57.1020 C   0  0  0  0  0  0  0  0  0  0  0  0
  -17.5280  -20.2850  -58.4360 C   0  0  0  0  0  0  0  0  0  0  0  0
  -17.9310  -22.8580  -57.3300 C   0  0  0  0  0  0  0  0  0  0  0  0
  -16.1940  -18.8100  -61.3300 C   0  0  0  0  0  0  0  0  0  0  0  0
  -17.7070  -18.9130  -61.5210 C   0  0  0  0  0  0  0  0  0  0  0  0
  -16.1660  -22.5150  -61.1490 C   0  0  0  0  0  0  0  0  0  0  0  0
  -18.1520  -21.7050  -56.5550 C   0  0  0  0  0  0  0  0  0  0  0  0
  -17.2970  -21.4220  -59.2490 C   0  0  0  0  0  0  0  0  0  0  0  0
  -17.5120  -22.7050  -58.6590 C   0  0  0  0  0  0  0  0  0  0  0  0
  -16.8370  -20.1900  -61.5390 C   0  0  0  0  0  0  0  0  0  0  0  0
  -17.0180  -23.7100  -61.1430 N   0  0  0  0  0  0  0  0  0  0  0  0
  -16.8820  -21.3550  -60.5520 N   0  0  0  0  0  0  0  0  0  0  0  0
  -16.0060  -24.8690  -59.0580 O   0  0  0  0  0  0  0  0  0  0  0  0
  -18.4520  -25.0890  -59.4890 O   0  0  0  0  0  0  0  0  0  0  0  0
  -17.2440  -24.1580  -59.5880 S   0  0  0  0  0  0  0  0  0  0  0  0
  -18.5610  -21.8420  -55.2640 F   0  0  0  0  0  0  0  0  0  0  0  0
  1  2  1  0  0  0  0
  4  5  1  0  0  0  0
  1  7  2  0  0  0  0
  3  7  1  0  0  0  0
  2  8  2  0  0  0  0
  3  9  2  0  0  0  0
  8  9  1  0  0  0  0
  4 10  1  0  0  0  0
  5 10  1  0  0  0  0
  6 11  1  0  0  0  0
  6 12  1  0  0  0  0
  8 12  1  0  0  0  0
 10 12  1  0  0  0  0
  9 15  1  0  0  0  0
 11 15  1  0  0  0  0
 13 15  2  0  0  0  0
 14 15  2  0  0  0  0
  7 16  1  0  0  0  0
M  END
$$$$
