7D4P
  PyMOL3.1          3D                             0

 23 26  0  0  0  0  0  0  0  0999 V2000
  127.6470  117.6320  154.5010 N   0  0  0  0  0  0  0  0  0  0  0  0
  126.3310  118.0300  155.0340 C   0  0  0  0  0  0  0  0  0  0  0  0
  131.1060  114.6760  162.0660 Cl  0  0  0  0  0  0  0  0  0  0  0  0
  128.3850  118.8390  154.0830 C   0  0  0  0  0  0  0  0  0  0  0  0
  129.0700  114.4730  155.6940 N   0  0  0  0  0  0  0  0  0  0  0  0
  126.1710  119.5240  154.7840 C   0  0  0  0  0  0  0  0  0  0  0  0
  126.9390  114.8590  155.2020 N   0  0  0  0  0  0  0  0  0  0  0  0
  127.5720  120.0480  154.5230 C   0  0  0  0  0  0  0  0  0  0  0  0
  128.4170  116.9150  155.5280 C   0  0  0  0  0  0  0  0  0  0  0  0
  128.1430  115.4270  155.4740 C   0  0  0  0  0  0  0  0  0  0  0  0
  128.4980  113.2730  155.5720 C   0  0  0  0  0  0  0  0  0  0  0  0
  130.4770  114.6980  156.0190 C   0  0  0  0  0  0  0  0  0  0  0  0
  127.0800  113.5190  155.2440 C   0  0  0  0  0  0  0  0  0  0  0  0
  130.6390  114.6900  157.5200 C   0  0  0  0  0  0  0  0  0  0  0  0
  128.9560  111.9670  155.6860 C   0  0  0  0  0  0  0  0  0  0  0  0
  126.2250  112.4410  155.0540 C   0  0  0  0  0  0  0  0  0  0  0  0
  128.0670  110.9150  155.4880 C   0  0  0  0  0  0  0  0  0  0  0  0
  126.7270  111.1470  155.1780 C   0  0  0  0  0  0  0  0  0  0  0  0
  131.2420  113.6050  158.1480 C   0  0  0  0  0  0  0  0  0  0  0  0
  130.1750  115.7630  158.2730 C   0  0  0  0  0  0  0  0  0  0  0  0
  131.3870  113.5960  159.5310 C   0  0  0  0  0  0  0  0  0  0  0  0
  130.3210  115.7550  159.6540 C   0  0  0  0  0  0  0  0  0  0  0  0
  130.9260  114.6730  160.2810 C   0  0  0  0  0  0  0  0  0  0  0  0
  1  2  1  0  0  0  0
  1  4  1  0  0  0  0
  2  6  1  0  0  0  0
  4  8  1  0  0  0  0
  6  8  1  0  0  0  0
  1  9  1  0  0  0  0
  5 10  1  0  0  0  0
  7 10  2  0  0  0  0
  9 10  1  0  0  0  0
  5 11  1  0  0  0  0
  5 12  1  0  0  0  0
  7 13  1  0  0  0  0
 11 13  2  0  0  0  0
 12 14  1  0  0  0  0
 11 15  1  0  0  0  0
 13 16  1  0  0  0  0
 15 17  2  0  0  0  0
 16 18  2  0  0  0  0
 17 18  1  0  0  0  0
 14 19  2  0  0  0  0
 14 20  1  0  0  0  0
 19 21  1  0  0  0  0
 20 22  2  0  0  0  0
  3 23  1  0  0  0  0
 21 23  2  0  0  0  0
 22 23  1  0  0  0  0
M  END
$$$$
