8G93
  PyMOL3.1          3D                             0

100104  0  0  0  0  0  0  0  0999 V2000
   42.1980   21.2290   81.6360 C   0  0  0  0  0  0  0  0  0  0  0  0
   42.7560   22.2290   80.8330 C   0  0  0  0  0  0  0  0  0  0  0  0
   43.9410   22.8610   81.2200 C   0  0  0  0  0  0  0  0  0  0  0  0
   44.5520   22.4680   82.4140 C   0  0  0  0  0  0  0  0  0  0  0  0
   43.9940   21.4810   83.2230 C   0  0  0  0  0  0  0  0  0  0  0  0
   42.8130   20.8600   82.8310 C   0  0  0  0  0  0  0  0  0  0  0  0
   44.5850   23.8520   80.5290 O   0  0  0  0  0  0  0  0  0  0  0  0
   43.9320   24.3570   79.3660 C   0  0  0  0  0  0  0  0  0  0  0  0
   44.8000   25.4620   78.7430 C   0  0  0  0  0  0  0  0  0  0  0  0
   46.1720   24.9100   78.3120 C   0  0  0  0  0  0  0  0  0  0  0  0
   46.9960   25.9240   77.5200 C   0  0  0  0  0  0  0  0  0  0  0  0
   46.2290   26.5170   76.3240 C   0  0  0  0  0  0  0  0  0  0  0  0
   44.9090   27.1220   76.8330 C   0  0  0  0  0  0  0  0  0  0  0  0
   44.0470   26.1100   77.5760 C   0  0  0  0  0  0  0  0  0  0  0  0
   47.0250   27.5670   75.7600 O   0  0  0  0  0  0  0  0  0  0  0  0
   46.0520   25.4600   75.2130 C   0  0  0  0  0  0  0  0  0  0  0  0
   45.1980   25.9320   74.1330 N   0  0  0  0  0  0  0  0  0  0  0  0
   44.1010   25.2170   73.6820 C   0  0  0  0  0  0  0  0  0  0  0  0
   43.8030   24.0840   74.0520 O   0  0  0  0  0  0  0  0  0  0  0  0
   43.2250   25.9000   72.6990 C   0  0  0  0  0  0  0  0  0  0  0  0
   42.3310   25.1240   71.9680 C   0  0  0  0  0  0  0  0  0  0  0  0
   41.4210   25.7400   71.1060 C   0  0  0  0  0  0  0  0  0  0  0  0
   41.3430   27.1350   70.9090 C   0  0  0  0  0  0  0  0  0  0  0  0
   42.2870   27.8780   71.6520 C   0  0  0  0  0  0  0  0  0  0  0  0
   43.2010   27.2860   72.5370 C   0  0  0  0  0  0  0  0  0  0  0  0
   40.4820   27.6830   70.1430 O   0  0  0  0  0  0  0  0  0  0  0  0
   40.5570   24.9380   70.4630 F   0  0  0  0  0  0  0  0  0  0  0  0
   45.7010   23.0470   82.7970 F   0  0  0  0  0  0  0  0  0  0  0  0
   44.9850   26.2280   79.5090 H   0  0  0  0  0  0  0  0  0  0  0  0
   41.2770   20.7410   81.3290 H   0  0  0  0  0  0  0  0  0  0  0  0
   42.2390   22.4880   79.9140 H   0  0  0  0  0  0  0  0  0  0  0  0
   44.4820   21.1940   84.1490 H   0  0  0  0  0  0  0  0  0  0  0  0
   42.3720   20.0860   83.4530 H   0  0  0  0  0  0  0  0  0  0  0  0
   42.9570   24.7730   79.6440 H   0  0  0  0  0  0  0  0  0  0  0  0
   43.7900   23.5520   78.6340 H   0  0  0  0  0  0  0  0  0  0  0  0
   46.7450   24.6110   79.1990 H   0  0  0  0  0  0  0  0  0  0  0  0
   46.0380   23.9990   77.7180 H   0  0  0  0  0  0  0  0  0  0  0  0
   47.9290   25.4610   77.1780 H   0  0  0  0  0  0  0  0  0  0  0  0
   47.3070   26.7360   78.1930 H   0  0  0  0  0  0  0  0  0  0  0  0
   45.1300   27.9650   77.5020 H   0  0  0  0  0  0  0  0  0  0  0  0
   44.3410   27.5660   76.0060 H   0  0  0  0  0  0  0  0  0  0  0  0
   43.1500   26.6130   77.9550 H   0  0  0  0  0  0  0  0  0  0  0  0
   43.6990   25.3400   76.8780 H   0  0  0  0  0  0  0  0  0  0  0  0
   47.1640   28.2430   76.4450 H   0  0  0  0  0  0  0  0  0  0  0  0
   47.0200   25.2340   74.7520 H   0  0  0  0  0  0  0  0  0  0  0  0
   45.6420   24.5260   75.6040 H   0  0  0  0  0  0  0  0  0  0  0  0
   45.4560   26.8120   73.7000 H   0  0  0  0  0  0  0  0  0  0  0  0
   42.3040   24.0420   72.0630 H   0  0  0  0  0  0  0  0  0  0  0  0
   42.3030   28.9660   71.5690 H   0  0  0  0  0  0  0  0  0  0  0  0
   43.8540   27.9440   73.1030 H   0  0  0  0  0  0  0  0  0  0  0  0
   10.6060   29.1030   62.5740 C   0  0  0  0  0  0  0  0  0  0  0  0
   10.4010   29.9530   63.6670 C   0  0  0  0  0  0  0  0  0  0  0  0
    9.6510   31.1200   63.5150 C   0  0  0  0  0  0  0  0  0  0  0  0
    9.1060   31.4110   62.2670 C   0  0  0  0  0  0  0  0  0  0  0  0
    9.3070   30.5720   61.1730 C   0  0  0  0  0  0  0  0  0  0  0  0
   10.0650   29.4140   61.3290 C   0  0  0  0  0  0  0  0  0  0  0  0
    9.3740   32.0380   64.4880 O   0  0  0  0  0  0  0  0  0  0  0  0
   10.0990   31.9210   65.7080 C   0  0  0  0  0  0  0  0  0  0  0  0
    9.7270   33.1180   66.5970 C   0  0  0  0  0  0  0  0  0  0  0  0
    8.2270   33.0910   66.9650 C   0  0  0  0  0  0  0  0  0  0  0  0
    7.8520   34.1820   67.9670 C   0  0  0  0  0  0  0  0  0  0  0  0
    8.7490   34.1860   69.2200 C   0  0  0  0  0  0  0  0  0  0  0  0
   10.2230   34.2730   68.7830 C   0  0  0  0  0  0  0  0  0  0  0  0
   10.6240   33.1470   67.8390 C   0  0  0  0  0  0  0  0  0  0  0  0
    8.4590   35.3770   69.9660 O   0  0  0  0  0  0  0  0  0  0  0  0
    8.4310   32.9720   70.1200 C   0  0  0  0  0  0  0  0  0  0  0  0
    9.3900   32.8140   71.2050 N   0  0  0  0  0  0  0  0  0  0  0  0
   10.1510   31.6670   71.3690 C   0  0  0  0  0  0  0  0  0  0  0  0
   10.0290   30.6430   70.7000 O   0  0  0  0  0  0  0  0  0  0  0  0
   11.1800   31.7090   72.4370 C   0  0  0  0  0  0  0  0  0  0  0  0
   11.6570   30.5050   72.9530 C   0  0  0  0  0  0  0  0  0  0  0  0
   12.6610   30.5180   73.9290 C   0  0  0  0  0  0  0  0  0  0  0  0
   13.2450   31.6960   74.4380 C   0  0  0  0  0  0  0  0  0  0  0  0
   12.7260   32.8870   73.8820 C   0  0  0  0  0  0  0  0  0  0  0  0
   11.7210   32.9050   72.9050 C   0  0  0  0  0  0  0  0  0  0  0  0
   14.1670   31.6890   75.3210 O   0  0  0  0  0  0  0  0  0  0  0  0
   13.0880   29.3290   74.3930 F   0  0  0  0  0  0  0  0  0  0  0  0
    8.3800   32.5300   62.1150 F   0  0  0  0  0  0  0  0  0  0  0  0
    9.9000   34.0390   66.0220 H   0  0  0  0  0  0  0  0  0  0  0  0
   11.1920   28.1970   62.6980 H   0  0  0  0  0  0  0  0  0  0  0  0
   10.8400   29.6740   64.6200 H   0  0  0  0  0  0  0  0  0  0  0  0
    8.8790   30.8200   60.2070 H   0  0  0  0  0  0  0  0  0  0  0  0
   10.2290   28.7520   60.4840 H   0  0  0  0  0  0  0  0  0  0  0  0
    9.8350   30.9860   66.2180 H   0  0  0  0  0  0  0  0  0  0  0  0
   11.1760   31.9370   65.5050 H   0  0  0  0  0  0  0  0  0  0  0  0
    7.6210   33.2220   66.0610 H   0  0  0  0  0  0  0  0  0  0  0  0
    7.9620   32.1080   67.3710 H   0  0  0  0  0  0  0  0  0  0  0  0
    7.9190   35.1610   67.4730 H   0  0  0  0  0  0  0  0  0  0  0  0
    6.7980   34.0760   68.2550 H   0  0  0  0  0  0  0  0  0  0  0  0
   10.3940   35.2390   68.2880 H   0  0  0  0  0  0  0  0  0  0  0  0
   10.8890   34.2880   69.6550 H   0  0  0  0  0  0  0  0  0  0  0  0
   11.6690   33.2890   67.5360 H   0  0  0  0  0  0  0  0  0  0  0  0
   10.5780   32.1850   68.3600 H   0  0  0  0  0  0  0  0  0  0  0  0
    7.5120   35.3670   70.1870 H   0  0  0  0  0  0  0  0  0  0  0  0
    8.3970   32.0430   69.5450 H   0  0  0  0  0  0  0  0  0  0  0  0
    7.4550   33.1010   70.6010 H   0  0  0  0  0  0  0  0  0  0  0  0
    9.4670   33.5820   71.8620 H   0  0  0  0  0  0  0  0  0  0  0  0
   11.2680   29.5480   72.6170 H   0  0  0  0  0  0  0  0  0  0  0  0
   13.1230   33.8490   74.2100 H   0  0  0  0  0  0  0  0  0  0  0  0
   11.4150   33.8670   72.5080 H   0  0  0  0  0  0  0  0  0  0  0  0
  1  2  1  0  0  0  0
  2  3  2  0  0  0  0
  3  4  1  0  0  0  0
  4  5  2  0  0  0  0
  1  6  2  0  0  0  0
  5  6  1  0  0  0  0
  3  7  1  0  0  0  0
  7  8  1  0  0  0  0
  8  9  1  0  0  0  0
  9 10  1  0  0  0  0
 10 11  1  0  0  0  0
 11 12  1  0  0  0  0
 12 13  1  0  0  0  0
  9 14  1  0  0  0  0
 13 14  1  0  0  0  0
 12 15  1  0  0  0  0
 12 16  1  0  0  0  0
 16 17  1  0  0  0  0
 17 18  1  0  0  0  0
 18 19  2  0  0  0  0
 18 20  1  0  0  0  0
 20 21  2  0  0  0  0
 21 22  1  0  0  0  0
 22 23  2  0  0  0  0
 23 24  1  0  0  0  0
 20 25  1  0  0  0  0
 24 25  2  0  0  0  0
 23 26  1  0  0  0  0
 22 27  1  0  0  0  0
  4 28  1  0  0  0  0
  9 29  1  0  0  0  0
  1 30  1  0  0  0  0
  2 31  1  0  0  0  0
  5 32  1  0  0  0  0
  6 33  1  0  0  0  0
  8 34  1  0  0  0  0
  8 35  1  0  0  0  0
 10 36  1  0  0  0  0
 10 37  1  0  0  0  0
 11 38  1  0  0  0  0
 11 39  1  0  0  0  0
 13 40  1  0  0  0  0
 13 41  1  0  0  0  0
 14 42  1  0  0  0  0
 14 43  1  0  0  0  0
 15 44  1  0  0  0  0
 16 45  1  0  0  0  0
 16 46  1  0  0  0  0
 17 47  1  0  0  0  0
 21 48  1  0  0  0  0
 24 49  1  0  0  0  0
 25 50  1  0  0  0  0
 51 52  1  0  0  0  0
 52 53  2  0  0  0  0
 53 54  1  0  0  0  0
 54 55  2  0  0  0  0
 51 56  2  0  0  0  0
 55 56  1  0  0  0  0
 53 57  1  0  0  0  0
 57 58  1  0  0  0  0
 58 59  1  0  0  0  0
 59 60  1  0  0  0  0
 60 61  1  0  0  0  0
 61 62  1  0  0  0  0
 62 63  1  0  0  0  0
 59 64  1  0  0  0  0
 63 64  1  0  0  0  0
 62 65  1  0  0  0  0
 62 66  1  0  0  0  0
 66 67  1  0  0  0  0
 67 68  1  0  0  0  0
 68 69  2  0  0  0  0
 68 70  1  0  0  0  0
 70 71  2  0  0  0  0
 71 72  1  0  0  0  0
 72 73  2  0  0  0  0
 73 74  1  0  0  0  0
 70 75  1  0  0  0  0
 74 75  2  0  0  0  0
 73 76  1  0  0  0  0
 72 77  1  0  0  0  0
 54 78  1  0  0  0  0
 59 79  1  0  0  0  0
 51 80  1  0  0  0  0
 52 81  1  0  0  0  0
 55 82  1  0  0  0  0
 56 83  1  0  0  0  0
 58 84  1  0  0  0  0
 58 85  1  0  0  0  0
 60 86  1  0  0  0  0
 60 87  1  0  0  0  0
 61 88  1  0  0  0  0
 61 89  1  0  0  0  0
 63 90  1  0  0  0  0
 63 91  1  0  0  0  0
 64 92  1  0  0  0  0
 64 93  1  0  0  0  0
 65 94  1  0  0  0  0
 66 95  1  0  0  0  0
 66 96  1  0  0  0  0
 67 97  1  0  0  0  0
 71 98  1  0  0  0  0
 74 99  1  0  0  0  0
 75100  1  0  0  0  0
M  END
$$$$
