6LUR
  PyMOL3.1          3D                             0

 21 23  0  0  0  0  0  0  0  0999 V2000
   27.0640  -13.4100  -87.6720 C   0  0  0  0  0  0  0  0  0  0  0  0
   27.1150  -12.0750  -87.3480 N   0  0  0  0  0  0  0  0  0  0  0  0
   29.5450   -9.4600  -87.9530 O   0  0  0  0  0  0  0  0  0  0  0  0
   28.4560  -11.5280  -87.4530 C   0  0  0  0  0  0  0  0  0  0  0  0
   27.4660   -9.3580  -87.1110 N   0  0  0  0  0  0  0  0  0  0  0  0
   28.5190  -10.0340  -87.5400 C   0  0  0  0  0  0  0  0  0  0  0  0
   22.2050  -13.5930  -81.7270 N   0  0  0  0  0  0  0  0  0  0  0  0
   26.0740   -9.7750  -87.2310 C   0  0  0  0  0  0  0  0  0  0  0  0
   25.9060  -11.2730  -87.0760 C   0  0  0  0  0  0  0  0  0  0  0  0
   23.8470  -14.1820  -85.7920 C   0  0  0  0  0  0  0  0  0  0  0  0
   25.1900  -13.8100  -85.9090 C   0  0  0  0  0  0  0  0  0  0  0  0
   25.7390  -13.0630  -84.8630 C   0  0  0  0  0  0  0  0  0  0  0  0
   24.9700  -12.6420  -83.7880 C   0  0  0  0  0  0  0  0  0  0  0  0
   23.6330  -12.9980  -83.6870 C   0  0  0  0  0  0  0  0  0  0  0  0
   23.0770  -13.7650  -84.7100 C   0  0  0  0  0  0  0  0  0  0  0  0
   26.0620  -14.2810  -87.0250 C   0  0  0  0  0  0  0  0  0  0  0  0
   26.0340  -15.6230  -87.3980 C   0  0  0  0  0  0  0  0  0  0  0  0
   26.8970  -16.1050  -88.3740 C   0  0  0  0  0  0  0  0  0  0  0  0
   27.8160  -15.2760  -88.9940 C   0  0  0  0  0  0  0  0  0  0  0  0
   27.8950  -13.9340  -88.6630 C   0  0  0  0  0  0  0  0  0  0  0  0
   22.8350  -12.5090  -82.4950 C   0  0  0  0  0  0  0  0  0  0  0  0
  1  2  1  0  0  0  0
  2  4  1  0  0  0  0
  3  6  2  0  0  0  0
  4  6  1  0  0  0  0
  5  6  1  0  0  0  0
  5  8  1  0  0  0  0
  2  9  1  0  0  0  0
  8  9  1  0  0  0  0
 10 11  2  0  0  0  0
 11 12  1  0  0  0  0
 12 13  2  0  0  0  0
 13 14  1  0  0  0  0
 10 15  1  0  0  0  0
 14 15  2  0  0  0  0
  1 16  1  0  0  0  0
 11 16  1  0  0  0  0
 16 17  2  0  0  0  0
 17 18  1  0  0  0  0
 18 19  2  0  0  0  0
  1 20  2  0  0  0  0
 19 20  1  0  0  0  0
  7 21  1  0  0  0  0
 14 21  1  0  0  0  0
M  END
$$$$
