6LUR
  PyMOL3.1          3D                             0

 21 23  0  0  0  0  0  0  0  0999 V2000
   35.3660  -45.2380  -99.3620 C   0  0  0  0  0  0  0  0  0  0  0  0
   34.1200  -45.0100  -98.8220 N   0  0  0  0  0  0  0  0  0  0  0  0
   30.7660  -44.4680 -100.1100 O   0  0  0  0  0  0  0  0  0  0  0  0
   33.0940  -44.8560  -99.8360 C   0  0  0  0  0  0  0  0  0  0  0  0
   31.5290  -44.5900  -98.0060 N   0  0  0  0  0  0  0  0  0  0  0  0
   31.7090  -44.6370  -99.3150 C   0  0  0  0  0  0  0  0  0  0  0  0
   35.5680  -42.0760  -92.8040 N   0  0  0  0  0  0  0  0  0  0  0  0
   32.3960  -45.1800  -96.9980 C   0  0  0  0  0  0  0  0  0  0  0  0
   33.8560  -45.0440  -97.3740 C   0  0  0  0  0  0  0  0  0  0  0  0
   37.1180  -44.1960  -96.3320 C   0  0  0  0  0  0  0  0  0  0  0  0
   36.4510  -43.8290  -97.4940 C   0  0  0  0  0  0  0  0  0  0  0  0
   35.7290  -42.6290  -97.4720 C   0  0  0  0  0  0  0  0  0  0  0  0
   35.6530  -41.8410  -96.3290 C   0  0  0  0  0  0  0  0  0  0  0  0
   36.3330  -42.2240  -95.1760 C   0  0  0  0  0  0  0  0  0  0  0  0
   37.0590  -43.4070  -95.1960 C   0  0  0  0  0  0  0  0  0  0  0  0
   36.5430  -44.6710  -98.7200 C   0  0  0  0  0  0  0  0  0  0  0  0
   37.7950  -44.9480  -99.2700 C   0  0  0  0  0  0  0  0  0  0  0  0
   37.9060  -45.6950 -100.4280 C   0  0  0  0  0  0  0  0  0  0  0  0
   36.7770  -46.2170 -101.0410 C   0  0  0  0  0  0  0  0  0  0  0  0
   35.5170  -45.9980 -100.5130 C   0  0  0  0  0  0  0  0  0  0  0  0
   36.3110  -41.4220  -93.8980 C   0  0  0  0  0  0  0  0  0  0  0  0
  1  2  1  0  0  0  0
  2  4  1  0  0  0  0
  3  6  2  0  0  0  0
  4  6  1  0  0  0  0
  5  6  1  0  0  0  0
  5  8  1  0  0  0  0
  2  9  1  0  0  0  0
  8  9  1  0  0  0  0
 10 11  2  0  0  0  0
 11 12  1  0  0  0  0
 12 13  2  0  0  0  0
 13 14  1  0  0  0  0
 10 15  1  0  0  0  0
 14 15  2  0  0  0  0
  1 16  1  0  0  0  0
 11 16  1  0  0  0  0
 16 17  2  0  0  0  0
 17 18  1  0  0  0  0
 18 19  2  0  0  0  0
  1 20  2  0  0  0  0
 19 20  1  0  0  0  0
  7 21  1  0  0  0  0
 14 21  1  0  0  0  0
M  END
$$$$
