6LUR
  PyMOL3.1          3D                             0

 21 23  0  0  0  0  0  0  0  0999 V2000
   40.0530  -13.7940 -126.0220 C   0  0  0  0  0  0  0  0  0  0  0  0
   40.3920  -12.7970 -126.9690 N   0  0  0  0  0  0  0  0  0  0  0  0
   41.6670  -12.5960 -130.3760 O   0  0  0  0  0  0  0  0  0  0  0  0
   40.7320  -13.2930 -128.2950 C   0  0  0  0  0  0  0  0  0  0  0  0
   41.2680  -10.9840 -128.8510 N   0  0  0  0  0  0  0  0  0  0  0  0
   41.2650  -12.2560 -129.2440 C   0  0  0  0  0  0  0  0  0  0  0  0
   46.1160  -15.8700 -129.6800 N   0  0  0  0  0  0  0  0  0  0  0  0
   40.5910  -10.4410 -127.6770 C   0  0  0  0  0  0  0  0  0  0  0  0
   39.7160  -11.4950 -127.0310 C   0  0  0  0  0  0  0  0  0  0  0  0
   43.2500  -14.1910 -126.3980 C   0  0  0  0  0  0  0  0  0  0  0  0
   42.2670  -15.1840 -126.4240 C   0  0  0  0  0  0  0  0  0  0  0  0
   42.5970  -16.3980 -127.0440 C   0  0  0  0  0  0  0  0  0  0  0  0
   43.8360  -16.5890 -127.6400 C   0  0  0  0  0  0  0  0  0  0  0  0
   44.8010  -15.5890 -127.6120 C   0  0  0  0  0  0  0  0  0  0  0  0
   44.4930  -14.3920 -126.9870 C   0  0  0  0  0  0  0  0  0  0  0  0
   40.9400  -14.9760 -125.7700 C   0  0  0  0  0  0  0  0  0  0  0  0
   40.5210  -15.9090 -124.8230 C   0  0  0  0  0  0  0  0  0  0  0  0
   39.3110  -15.7680 -124.1630 C   0  0  0  0  0  0  0  0  0  0  0  0
   38.4940  -14.6810 -124.4080 C   0  0  0  0  0  0  0  0  0  0  0  0
   38.8530  -13.7110 -125.3300 C   0  0  0  0  0  0  0  0  0  0  0  0
   46.1680  -15.7630 -128.2270 C   0  0  0  0  0  0  0  0  0  0  0  0
  1  2  1  0  0  0  0
  2  4  1  0  0  0  0
  3  6  2  0  0  0  0
  4  6  1  0  0  0  0
  5  6  1  0  0  0  0
  5  8  1  0  0  0  0
  2  9  1  0  0  0  0
  8  9  1  0  0  0  0
 10 11  2  0  0  0  0
 11 12  1  0  0  0  0
 12 13  2  0  0  0  0
 13 14  1  0  0  0  0
 10 15  1  0  0  0  0
 14 15  2  0  0  0  0
  1 16  1  0  0  0  0
 11 16  1  0  0  0  0
 16 17  2  0  0  0  0
 17 18  1  0  0  0  0
 18 19  2  0  0  0  0
  1 20  2  0  0  0  0
 19 20  1  0  0  0  0
  7 21  1  0  0  0  0
 14 21  1  0  0  0  0
M  END
$$$$
