6LUR
  PyMOL3.1          3D                             0

 21 23  0  0  0  0  0  0  0  0999 V2000
   26.3850  -34.4720  -63.2190 C   0  0  0  0  0  0  0  0  0  0  0  0
   26.6670  -33.6020  -62.1760 N   0  0  0  0  0  0  0  0  0  0  0  0
   24.6530  -31.9250  -59.6380 O   0  0  0  0  0  0  0  0  0  0  0  0
   25.4530  -33.1240  -61.5330 C   0  0  0  0  0  0  0  0  0  0  0  0
   26.8830  -31.8900  -60.0040 N   0  0  0  0  0  0  0  0  0  0  0  0
   25.6440  -32.2660  -60.3180 C   0  0  0  0  0  0  0  0  0  0  0  0
   33.4310  -36.4040  -61.3580 N   0  0  0  0  0  0  0  0  0  0  0  0
   28.0600  -31.9720  -60.8620 C   0  0  0  0  0  0  0  0  0  0  0  0
   28.0180  -33.2230  -61.7210 C   0  0  0  0  0  0  0  0  0  0  0  0
   28.5110  -36.2250  -61.4160 C   0  0  0  0  0  0  0  0  0  0  0  0
   28.5140  -35.9260  -62.7760 C   0  0  0  0  0  0  0  0  0  0  0  0
   29.7480  -35.9050  -63.4340 C   0  0  0  0  0  0  0  0  0  0  0  0
   30.9270  -36.1670  -62.7470 C   0  0  0  0  0  0  0  0  0  0  0  0
   30.9210  -36.4320  -61.3860 C   0  0  0  0  0  0  0  0  0  0  0  0
   29.6980  -36.4550  -60.7290 C   0  0  0  0  0  0  0  0  0  0  0  0
   27.2490  -35.6500  -63.5130 C   0  0  0  0  0  0  0  0  0  0  0  0
   26.9020  -36.4720  -64.5850 C   0  0  0  0  0  0  0  0  0  0  0  0
   25.7430  -36.2390  -65.3030 C   0  0  0  0  0  0  0  0  0  0  0  0
   24.9250  -35.1590  -65.0040 C   0  0  0  0  0  0  0  0  0  0  0  0
   25.2230  -34.2920  -63.9670 C   0  0  0  0  0  0  0  0  0  0  0  0
   32.1950  -36.6980  -60.6120 C   0  0  0  0  0  0  0  0  0  0  0  0
  1  2  1  0  0  0  0
  2  4  1  0  0  0  0
  3  6  2  0  0  0  0
  4  6  1  0  0  0  0
  5  6  1  0  0  0  0
  5  8  1  0  0  0  0
  2  9  1  0  0  0  0
  8  9  1  0  0  0  0
 10 11  2  0  0  0  0
 11 12  1  0  0  0  0
 12 13  2  0  0  0  0
 13 14  1  0  0  0  0
 10 15  1  0  0  0  0
 14 15  2  0  0  0  0
  1 16  1  0  0  0  0
 11 16  1  0  0  0  0
 16 17  2  0  0  0  0
 17 18  1  0  0  0  0
 18 19  2  0  0  0  0
  1 20  2  0  0  0  0
 19 20  1  0  0  0  0
  7 21  1  0  0  0  0
 14 21  1  0  0  0  0
M  END
$$$$
