6LUR
  PyMOL3.1          3D                             0

 21 23  0  0  0  0  0  0  0  0999 V2000
   10.4690  -85.7060  -89.0590 C   0  0  0  0  0  0  0  0  0  0  0  0
   11.3840  -86.2310  -88.1170 N   0  0  0  0  0  0  0  0  0  0  0  0
   14.7340  -85.3540  -86.9850 O   0  0  0  0  0  0  0  0  0  0  0  0
   12.7910  -85.8930  -88.2740 C   0  0  0  0  0  0  0  0  0  0  0  0
   13.2650  -86.7690  -86.0560 N   0  0  0  0  0  0  0  0  0  0  0  0
   13.6650  -85.9890  -87.0520 C   0  0  0  0  0  0  0  0  0  0  0  0
    8.4670  -93.0320  -88.8780 N   0  0  0  0  0  0  0  0  0  0  0  0
   11.9470  -87.3780  -85.9780 C   0  0  0  0  0  0  0  0  0  0  0  0
   10.9740  -86.4880  -86.7220 C   0  0  0  0  0  0  0  0  0  0  0  0
    7.9730  -88.6190  -88.9970 C   0  0  0  0  0  0  0  0  0  0  0  0
    9.2070  -87.9730  -89.1130 C   0  0  0  0  0  0  0  0  0  0  0  0
   10.3520  -88.7190  -88.8360 C   0  0  0  0  0  0  0  0  0  0  0  0
   10.2720  -90.0390  -88.4220 C   0  0  0  0  0  0  0  0  0  0  0  0
    9.0470  -90.6770  -88.3080 C   0  0  0  0  0  0  0  0  0  0  0  0
    7.8970  -89.9480  -88.5950 C   0  0  0  0  0  0  0  0  0  0  0  0
    9.3300  -86.5490  -89.5360 C   0  0  0  0  0  0  0  0  0  0  0  0
    8.4090  -85.9910  -90.4250 C   0  0  0  0  0  0  0  0  0  0  0  0
    8.5330  -84.6660  -90.8200 C   0  0  0  0  0  0  0  0  0  0  0  0
    9.5890  -83.8840  -90.3770 C   0  0  0  0  0  0  0  0  0  0  0  0
   10.5380  -84.3800  -89.4920 C   0  0  0  0  0  0  0  0  0  0  0  0
    9.0260  -92.1260  -87.8660 C   0  0  0  0  0  0  0  0  0  0  0  0
  1  2  1  0  0  0  0
  2  4  1  0  0  0  0
  3  6  2  0  0  0  0
  4  6  1  0  0  0  0
  5  6  1  0  0  0  0
  5  8  1  0  0  0  0
  2  9  1  0  0  0  0
  8  9  1  0  0  0  0
 10 11  2  0  0  0  0
 11 12  1  0  0  0  0
 12 13  2  0  0  0  0
 13 14  1  0  0  0  0
 10 15  1  0  0  0  0
 14 15  2  0  0  0  0
  1 16  1  0  0  0  0
 11 16  1  0  0  0  0
 16 17  2  0  0  0  0
 17 18  1  0  0  0  0
 18 19  2  0  0  0  0
  1 20  2  0  0  0  0
 19 20  1  0  0  0  0
  7 21  1  0  0  0  0
 14 21  1  0  0  0  0
M  END
$$$$
