6LUR
  PyMOL3.1          3D                             0

 21 23  0  0  0  0  0  0  0  0999 V2000
   12.7180  -65.5210  -62.8060 C   0  0  0  0  0  0  0  0  0  0  0  0
   12.4160  -66.3840  -61.7450 N   0  0  0  0  0  0  0  0  0  0  0  0
    9.6080  -68.3040  -60.5900 O   0  0  0  0  0  0  0  0  0  0  0  0
   11.2850  -67.2710  -61.9470 C   0  0  0  0  0  0  0  0  0  0  0  0
   11.6580  -68.1020  -59.6990 N   0  0  0  0  0  0  0  0  0  0  0  0
   10.7930  -67.9230  -60.6870 C   0  0  0  0  0  0  0  0  0  0  0  0
    6.8400  -62.2630  -59.7530 N   0  0  0  0  0  0  0  0  0  0  0  0
   12.9640  -67.4710  -59.5800 C   0  0  0  0  0  0  0  0  0  0  0  0
   13.4660  -67.0170  -60.9340 C   0  0  0  0  0  0  0  0  0  0  0  0
   10.4800  -64.0690  -61.1390 C   0  0  0  0  0  0  0  0  0  0  0  0
   10.4860  -64.2810  -62.5120 C   0  0  0  0  0  0  0  0  0  0  0  0
    9.2640  -64.2330  -63.1860 C   0  0  0  0  0  0  0  0  0  0  0  0
    8.0790  -64.0150  -62.4950 C   0  0  0  0  0  0  0  0  0  0  0  0
    8.0840  -63.8300  -61.1230 C   0  0  0  0  0  0  0  0  0  0  0  0
    9.2950  -63.8610  -60.4530 C   0  0  0  0  0  0  0  0  0  0  0  0
   11.7700  -64.4930  -63.2230 C   0  0  0  0  0  0  0  0  0  0  0  0
   12.1100  -63.6470  -64.2760 C   0  0  0  0  0  0  0  0  0  0  0  0
   13.3220  -63.7910  -64.9310 C   0  0  0  0  0  0  0  0  0  0  0  0
   14.2100  -64.7760  -64.5440 C   0  0  0  0  0  0  0  0  0  0  0  0
   13.9180  -65.6280  -63.4900 C   0  0  0  0  0  0  0  0  0  0  0  0
    6.8120  -63.5970  -60.3490 C   0  0  0  0  0  0  0  0  0  0  0  0
  1  2  1  0  0  0  0
  2  4  1  0  0  0  0
  3  6  2  0  0  0  0
  4  6  1  0  0  0  0
  5  6  1  0  0  0  0
  5  8  1  0  0  0  0
  2  9  1  0  0  0  0
  8  9  1  0  0  0  0
 10 11  2  0  0  0  0
 11 12  1  0  0  0  0
 12 13  2  0  0  0  0
 13 14  1  0  0  0  0
 10 15  1  0  0  0  0
 14 15  2  0  0  0  0
  1 16  1  0  0  0  0
 11 16  1  0  0  0  0
 16 17  2  0  0  0  0
 17 18  1  0  0  0  0
 18 19  2  0  0  0  0
  1 20  2  0  0  0  0
 19 20  1  0  0  0  0
  7 21  1  0  0  0  0
 14 21  1  0  0  0  0
M  END
$$$$
