6LUR
  PyMOL3.1          3D                             0

 21 23  0  0  0  0  0  0  0  0999 V2000
   14.6380  -36.9370  -92.6800 C   0  0  0  0  0  0  0  0  0  0  0  0
   15.7780  -37.3680  -93.3530 N   0  0  0  0  0  0  0  0  0  0  0  0
   17.5350  -40.4670  -93.9910 O   0  0  0  0  0  0  0  0  0  0  0  0
   15.8840  -38.8090  -93.5300 C   0  0  0  0  0  0  0  0  0  0  0  0
   17.9080  -38.4040  -94.8110 N   0  0  0  0  0  0  0  0  0  0  0  0
   17.1730  -39.2820  -94.1360 C   0  0  0  0  0  0  0  0  0  0  0  0
   20.8330  -33.7350  -90.6760 N   0  0  0  0  0  0  0  0  0  0  0  0
   17.6130  -36.9860  -94.9740 C   0  0  0  0  0  0  0  0  0  0  0  0
   16.8800  -36.4770  -93.7520 C   0  0  0  0  0  0  0  0  0  0  0  0
   16.3520  -34.1840  -90.9660 C   0  0  0  0  0  0  0  0  0  0  0  0
   16.0860  -35.5560  -91.0060 C   0  0  0  0  0  0  0  0  0  0  0  0
   17.0990  -36.4230  -90.5850 C   0  0  0  0  0  0  0  0  0  0  0  0
   18.3180  -35.9290  -90.1400 C   0  0  0  0  0  0  0  0  0  0  0  0
   18.5640  -34.5590  -90.0990 C   0  0  0  0  0  0  0  0  0  0  0  0
   17.5700  -33.6900  -90.5230 C   0  0  0  0  0  0  0  0  0  0  0  0
   14.7680  -36.0530  -91.5000 C   0  0  0  0  0  0  0  0  0  0  0  0
   13.6000  -35.6260  -90.8700 C   0  0  0  0  0  0  0  0  0  0  0  0
   12.3610  -36.0510  -91.3200 C   0  0  0  0  0  0  0  0  0  0  0  0
   12.2470  -36.8800  -92.4240 C   0  0  0  0  0  0  0  0  0  0  0  0
   13.3680  -37.3270  -93.0990 C   0  0  0  0  0  0  0  0  0  0  0  0
   19.8680  -33.9890  -89.5970 C   0  0  0  0  0  0  0  0  0  0  0  0
  1  2  1  0  0  0  0
  2  4  1  0  0  0  0
  3  6  2  0  0  0  0
  4  6  1  0  0  0  0
  5  6  1  0  0  0  0
  5  8  1  0  0  0  0
  2  9  1  0  0  0  0
  8  9  1  0  0  0  0
 10 11  2  0  0  0  0
 11 12  1  0  0  0  0
 12 13  2  0  0  0  0
 13 14  1  0  0  0  0
 10 15  1  0  0  0  0
 14 15  2  0  0  0  0
  1 16  1  0  0  0  0
 11 16  1  0  0  0  0
 16 17  2  0  0  0  0
 17 18  1  0  0  0  0
 18 19  2  0  0  0  0
  1 20  2  0  0  0  0
 19 20  1  0  0  0  0
  7 21  1  0  0  0  0
 14 21  1  0  0  0  0
M  END
$$$$
