9B6E
  PyMOL3.1          3D                             0

208224  0  0  0  0  0  0  0  0999 V2000
  176.6810  159.0170  208.5670 C   0  0  0  0  0  0  0  0  0  0  0  0
  177.9410  158.9610  207.6830 C   0  0  0  0  0  0  0  0  0  0  0  0
  178.1580  159.9700  206.7520 C   0  0  0  0  0  0  0  0  0  0  0  0
  179.2850  159.9450  205.9430 C   0  0  0  0  0  0  0  0  0  0  0  0
  180.2000  158.9100  206.0610 C   0  0  0  0  0  0  0  0  0  0  0  0
  179.9870  157.9020  206.9880 C   0  0  0  0  0  0  0  0  0  0  0  0
  178.8640  157.9260  207.8020 C   0  0  0  0  0  0  0  0  0  0  0  0
  178.6680  156.7810  208.8100 C   0  0  0  0  0  0  0  0  0  0  0  0
  178.2120  155.5470  208.3360 C   0  0  0  0  0  0  0  0  0  0  0  0
  178.0240  154.4800  209.2080 C   0  0  0  0  0  0  0  0  0  0  0  0
  177.5220  153.1110  208.7230 C   0  0  0  0  0  0  0  0  0  0  0  0
  178.3090  154.7110  210.5360 C   0  0  0  0  0  0  0  0  0  0  0  0
  178.2340  153.8650  211.7050 N   0  0  0  0  0  0  0  0  0  0  0  0
  178.6060  154.5560  212.7130 C   0  0  0  0  0  0  0  0  0  0  0  0
  178.6440  154.0200  213.9360 C   0  0  0  0  0  0  0  0  0  0  0  0
  178.4540  152.7860  214.1490 N   0  0  0  0  0  0  0  0  0  0  0  0
  178.2780  152.5310  215.3140 O   0  0  0  0  0  0  0  0  0  0  0  0
  178.3230  153.6650  216.1910 C   0  0  0  0  0  0  0  0  0  0  0  0
  177.0120  153.7930  216.9810 C   0  0  0  0  0  0  0  0  0  0  0  0
  176.8590  152.5770  217.9080 C   0  0  0  0  0  0  0  0  0  0  0  0
  178.0550  152.5200  218.8730 C   0  0  0  0  0  0  0  0  0  0  0  0
  179.3480  152.3470  218.0620 C   0  0  0  0  0  0  0  0  0  0  0  0
  179.5300  153.5600  217.1350 C   0  0  0  0  0  0  0  0  0  0  0  0
  178.5000  154.8370  215.2180 C   0  0  0  0  0  0  0  0  0  0  0  0
  178.9510  155.7810  212.4710 N   0  0  0  0  0  0  0  0  0  0  0  0
  178.7520  155.8980  211.0130 C   0  0  0  0  0  0  0  0  0  0  0  0
  178.9490  156.9720  210.1640 C   0  0  0  0  0  0  0  0  0  0  0  0
  175.9790  157.8970  208.4340 F   0  0  0  0  0  0  0  0  0  0  0  0
  178.5390  152.2570  208.6850 F   0  0  0  0  0  0  0  0  0  0  0  0
  176.5980  152.6590  209.5640 F   0  0  0  0  0  0  0  0  0  0  0  0
  176.9970  153.2330  207.5090 F   0  0  0  0  0  0  0  0  0  0  0  0
  177.0290  159.1830  209.8380 F   0  0  0  0  0  0  0  0  0  0  0  0
  175.9270  160.0440  208.1890 F   0  0  0  0  0  0  0  0  0  0  0  0
  177.4430  160.7850  206.6560 H   0  0  0  0  0  0  0  0  0  0  0  0
  179.4500  160.7380  205.2160 H   0  0  0  0  0  0  0  0  0  0  0  0
  181.0850  158.8880  205.4270 H   0  0  0  0  0  0  0  0  0  0  0  0
  180.7060  157.0890  207.0800 H   0  0  0  0  0  0  0  0  0  0  0  0
  178.0030  155.4200  207.2750 H   0  0  0  0  0  0  0  0  0  0  0  0
  177.9390  152.9010  211.7210 H   0  0  0  0  0  0  0  0  0  0  0  0
  177.0360  154.7040  217.5780 H   0  0  0  0  0  0  0  0  0  0  0  0
  176.1720  153.8310  216.2890 H   0  0  0  0  0  0  0  0  0  0  0  0
  176.8370  151.6680  217.3090 H   0  0  0  0  0  0  0  0  0  0  0  0
  175.9360  152.6630  218.4780 H   0  0  0  0  0  0  0  0  0  0  0  0
  177.9360  151.6790  219.5530 H   0  0  0  0  0  0  0  0  0  0  0  0
  178.1060  153.4470  219.4410 H   0  0  0  0  0  0  0  0  0  0  0  0
  180.1960  152.2740  218.7400 H   0  0  0  0  0  0  0  0  0  0  0  0
  179.2780  151.4420  217.4610 H   0  0  0  0  0  0  0  0  0  0  0  0
  179.6030  154.4660  217.7340 H   0  0  0  0  0  0  0  0  0  0  0  0
  180.4380  153.4350  216.5480 H   0  0  0  0  0  0  0  0  0  0  0  0
  177.6170  155.4730  215.1900 H   0  0  0  0  0  0  0  0  0  0  0  0
  179.4050  155.4040  215.4290 H   0  0  0  0  0  0  0  0  0  0  0  0
  179.3040  157.9300  210.5370 H   0  0  0  0  0  0  0  0  0  0  0  0
  159.0200  168.9210  208.5670 C   0  0  0  0  0  0  0  0  0  0  0  0
  158.9640  167.6610  207.6830 C   0  0  0  0  0  0  0  0  0  0  0  0
  159.9730  167.4440  206.7520 C   0  0  0  0  0  0  0  0  0  0  0  0
  159.9480  166.3170  205.9430 C   0  0  0  0  0  0  0  0  0  0  0  0
  158.9130  165.4020  206.0610 C   0  0  0  0  0  0  0  0  0  0  0  0
  157.9050  165.6150  206.9880 C   0  0  0  0  0  0  0  0  0  0  0  0
  157.9290  166.7380  207.8020 C   0  0  0  0  0  0  0  0  0  0  0  0
  156.7840  166.9340  208.8100 C   0  0  0  0  0  0  0  0  0  0  0  0
  155.5500  167.3900  208.3360 C   0  0  0  0  0  0  0  0  0  0  0  0
  154.4830  167.5780  209.2080 C   0  0  0  0  0  0  0  0  0  0  0  0
  153.1140  168.0800  208.7230 C   0  0  0  0  0  0  0  0  0  0  0  0
  154.7140  167.2930  210.5360 C   0  0  0  0  0  0  0  0  0  0  0  0
  153.8680  167.3680  211.7050 N   0  0  0  0  0  0  0  0  0  0  0  0
  154.5590  166.9960  212.7130 C   0  0  0  0  0  0  0  0  0  0  0  0
  154.0230  166.9580  213.9360 C   0  0  0  0  0  0  0  0  0  0  0  0
  152.7890  167.1480  214.1490 N   0  0  0  0  0  0  0  0  0  0  0  0
  152.5340  167.3240  215.3140 O   0  0  0  0  0  0  0  0  0  0  0  0
  153.6690  167.2790  216.1910 C   0  0  0  0  0  0  0  0  0  0  0  0
  153.7960  168.5900  216.9810 C   0  0  0  0  0  0  0  0  0  0  0  0
  152.5810  168.7430  217.9080 C   0  0  0  0  0  0  0  0  0  0  0  0
  152.5240  167.5470  218.8730 C   0  0  0  0  0  0  0  0  0  0  0  0
  152.3510  166.2540  218.0620 C   0  0  0  0  0  0  0  0  0  0  0  0
  153.5640  166.0720  217.1350 C   0  0  0  0  0  0  0  0  0  0  0  0
  154.8400  167.1020  215.2180 C   0  0  0  0  0  0  0  0  0  0  0  0
  155.7840  166.6510  212.4710 N   0  0  0  0  0  0  0  0  0  0  0  0
  155.9010  166.8500  211.0130 C   0  0  0  0  0  0  0  0  0  0  0  0
  156.9750  166.6530  210.1640 C   0  0  0  0  0  0  0  0  0  0  0  0
  157.9000  169.6230  208.4340 F   0  0  0  0  0  0  0  0  0  0  0  0
  152.2600  167.0620  208.6850 F   0  0  0  0  0  0  0  0  0  0  0  0
  152.6620  169.0040  209.5640 F   0  0  0  0  0  0  0  0  0  0  0  0
  153.2360  168.6040  207.5090 F   0  0  0  0  0  0  0  0  0  0  0  0
  159.1860  168.5730  209.8380 F   0  0  0  0  0  0  0  0  0  0  0  0
  160.0470  169.6750  208.1890 F   0  0  0  0  0  0  0  0  0  0  0  0
  160.7880  168.1590  206.6560 H   0  0  0  0  0  0  0  0  0  0  0  0
  160.7410  166.1520  205.2160 H   0  0  0  0  0  0  0  0  0  0  0  0
  158.8910  164.5170  205.4270 H   0  0  0  0  0  0  0  0  0  0  0  0
  157.0920  164.8960  207.0800 H   0  0  0  0  0  0  0  0  0  0  0  0
  155.4230  167.5990  207.2750 H   0  0  0  0  0  0  0  0  0  0  0  0
  152.9040  167.6630  211.7210 H   0  0  0  0  0  0  0  0  0  0  0  0
  154.7080  168.5660  217.5780 H   0  0  0  0  0  0  0  0  0  0  0  0
  153.8340  169.4300  216.2890 H   0  0  0  0  0  0  0  0  0  0  0  0
  151.6720  168.7650  217.3090 H   0  0  0  0  0  0  0  0  0  0  0  0
  152.6670  169.6660  218.4780 H   0  0  0  0  0  0  0  0  0  0  0  0
  151.6830  167.6660  219.5530 H   0  0  0  0  0  0  0  0  0  0  0  0
  153.4510  167.4960  219.4410 H   0  0  0  0  0  0  0  0  0  0  0  0
  152.2780  165.4060  218.7400 H   0  0  0  0  0  0  0  0  0  0  0  0
  151.4460  166.3240  217.4610 H   0  0  0  0  0  0  0  0  0  0  0  0
  154.4700  165.9990  217.7340 H   0  0  0  0  0  0  0  0  0  0  0  0
  153.4390  165.1640  216.5480 H   0  0  0  0  0  0  0  0  0  0  0  0
  155.4760  167.9850  215.1900 H   0  0  0  0  0  0  0  0  0  0  0  0
  155.4080  166.1970  215.4290 H   0  0  0  0  0  0  0  0  0  0  0  0
  157.9330  166.2980  210.5370 H   0  0  0  0  0  0  0  0  0  0  0  0
  168.9210  186.5800  208.5670 C   0  0  0  0  0  0  0  0  0  0  0  0
  167.6610  186.6360  207.6830 C   0  0  0  0  0  0  0  0  0  0  0  0
  167.4440  185.6270  206.7520 C   0  0  0  0  0  0  0  0  0  0  0  0
  166.3170  185.6520  205.9430 C   0  0  0  0  0  0  0  0  0  0  0  0
  165.4020  186.6870  206.0610 C   0  0  0  0  0  0  0  0  0  0  0  0
  165.6150  187.6950  206.9880 C   0  0  0  0  0  0  0  0  0  0  0  0
  166.7380  187.6710  207.8020 C   0  0  0  0  0  0  0  0  0  0  0  0
  166.9340  188.8160  208.8100 C   0  0  0  0  0  0  0  0  0  0  0  0
  167.3900  190.0500  208.3360 C   0  0  0  0  0  0  0  0  0  0  0  0
  167.5780  191.1170  209.2090 C   0  0  0  0  0  0  0  0  0  0  0  0
  168.0800  192.4860  208.7240 C   0  0  0  0  0  0  0  0  0  0  0  0
  167.2930  190.8860  210.5370 C   0  0  0  0  0  0  0  0  0  0  0  0
  167.3680  191.7310  211.7060 N   0  0  0  0  0  0  0  0  0  0  0  0
  166.9960  191.0400  212.7140 C   0  0  0  0  0  0  0  0  0  0  0  0
  166.9580  191.5760  213.9370 C   0  0  0  0  0  0  0  0  0  0  0  0
  167.1480  192.8100  214.1500 N   0  0  0  0  0  0  0  0  0  0  0  0
  167.3240  193.0650  215.3150 O   0  0  0  0  0  0  0  0  0  0  0  0
  167.2790  191.9310  216.1920 C   0  0  0  0  0  0  0  0  0  0  0  0
  168.5900  191.8030  216.9820 C   0  0  0  0  0  0  0  0  0  0  0  0
  168.7430  193.0190  217.9090 C   0  0  0  0  0  0  0  0  0  0  0  0
  167.5470  193.0760  218.8740 C   0  0  0  0  0  0  0  0  0  0  0  0
  166.2540  193.2490  218.0630 C   0  0  0  0  0  0  0  0  0  0  0  0
  166.0720  192.0360  217.1360 C   0  0  0  0  0  0  0  0  0  0  0  0
  167.1020  190.7590  215.2190 C   0  0  0  0  0  0  0  0  0  0  0  0
  166.6510  189.8150  212.4710 N   0  0  0  0  0  0  0  0  0  0  0  0
  166.8500  189.6980  211.0130 C   0  0  0  0  0  0  0  0  0  0  0  0
  166.6530  188.6240  210.1640 C   0  0  0  0  0  0  0  0  0  0  0  0
  169.6230  187.7000  208.4340 F   0  0  0  0  0  0  0  0  0  0  0  0
  167.0620  193.3400  208.6860 F   0  0  0  0  0  0  0  0  0  0  0  0
  169.0040  192.9380  209.5650 F   0  0  0  0  0  0  0  0  0  0  0  0
  168.6050  192.3640  207.5100 F   0  0  0  0  0  0  0  0  0  0  0  0
  168.5730  186.4140  209.8380 F   0  0  0  0  0  0  0  0  0  0  0  0
  169.6750  185.5530  208.1890 F   0  0  0  0  0  0  0  0  0  0  0  0
  168.1590  184.8120  206.6560 H   0  0  0  0  0  0  0  0  0  0  0  0
  166.1520  184.8590  205.2160 H   0  0  0  0  0  0  0  0  0  0  0  0
  164.5170  186.7090  205.4270 H   0  0  0  0  0  0  0  0  0  0  0  0
  164.8960  188.5080  207.0800 H   0  0  0  0  0  0  0  0  0  0  0  0
  167.5990  190.1770  207.2750 H   0  0  0  0  0  0  0  0  0  0  0  0
  167.6630  192.6950  211.7220 H   0  0  0  0  0  0  0  0  0  0  0  0
  168.5660  190.8920  217.5780 H   0  0  0  0  0  0  0  0  0  0  0  0
  169.4300  191.7650  216.2890 H   0  0  0  0  0  0  0  0  0  0  0  0
  168.7650  193.9280  217.3100 H   0  0  0  0  0  0  0  0  0  0  0  0
  169.6660  192.9330  218.4790 H   0  0  0  0  0  0  0  0  0  0  0  0
  167.6660  193.9170  219.5540 H   0  0  0  0  0  0  0  0  0  0  0  0
  167.4960  192.1490  219.4420 H   0  0  0  0  0  0  0  0  0  0  0  0
  165.4060  193.3220  218.7410 H   0  0  0  0  0  0  0  0  0  0  0  0
  166.3240  194.1540  217.4620 H   0  0  0  0  0  0  0  0  0  0  0  0
  165.9990  191.1300  217.7350 H   0  0  0  0  0  0  0  0  0  0  0  0
  165.1640  192.1610  216.5490 H   0  0  0  0  0  0  0  0  0  0  0  0
  167.9850  190.1230  215.1900 H   0  0  0  0  0  0  0  0  0  0  0  0
  166.1970  190.1920  215.4290 H   0  0  0  0  0  0  0  0  0  0  0  0
  166.2980  187.6660  210.5370 H   0  0  0  0  0  0  0  0  0  0  0  0
  186.5800  176.6790  208.5670 C   0  0  0  0  0  0  0  0  0  0  0  0
  186.6360  177.9390  207.6830 C   0  0  0  0  0  0  0  0  0  0  0  0
  185.6270  178.1560  206.7520 C   0  0  0  0  0  0  0  0  0  0  0  0
  185.6520  179.2830  205.9430 C   0  0  0  0  0  0  0  0  0  0  0  0
  186.6870  180.1980  206.0610 C   0  0  0  0  0  0  0  0  0  0  0  0
  187.6950  179.9850  206.9880 C   0  0  0  0  0  0  0  0  0  0  0  0
  187.6710  178.8620  207.8020 C   0  0  0  0  0  0  0  0  0  0  0  0
  188.8160  178.6660  208.8100 C   0  0  0  0  0  0  0  0  0  0  0  0
  190.0500  178.2100  208.3360 C   0  0  0  0  0  0  0  0  0  0  0  0
  191.1170  178.0220  209.2080 C   0  0  0  0  0  0  0  0  0  0  0  0
  192.4860  177.5210  208.7230 C   0  0  0  0  0  0  0  0  0  0  0  0
  190.8860  178.3070  210.5360 C   0  0  0  0  0  0  0  0  0  0  0  0
  191.7320  178.2320  211.7050 N   0  0  0  0  0  0  0  0  0  0  0  0
  191.0410  178.6040  212.7130 C   0  0  0  0  0  0  0  0  0  0  0  0
  191.5760  178.6420  213.9360 C   0  0  0  0  0  0  0  0  0  0  0  0
  192.8100  178.4520  214.1490 N   0  0  0  0  0  0  0  0  0  0  0  0
  193.0650  178.2760  215.3140 O   0  0  0  0  0  0  0  0  0  0  0  0
  191.9310  178.3210  216.1910 C   0  0  0  0  0  0  0  0  0  0  0  0
  191.8030  177.0100  216.9810 C   0  0  0  0  0  0  0  0  0  0  0  0
  193.0190  176.8570  217.9080 C   0  0  0  0  0  0  0  0  0  0  0  0
  193.0760  178.0530  218.8730 C   0  0  0  0  0  0  0  0  0  0  0  0
  193.2490  179.3460  218.0620 C   0  0  0  0  0  0  0  0  0  0  0  0
  192.0360  179.5280  217.1350 C   0  0  0  0  0  0  0  0  0  0  0  0
  190.7590  178.4980  215.2180 C   0  0  0  0  0  0  0  0  0  0  0  0
  189.8160  178.9490  212.4710 N   0  0  0  0  0  0  0  0  0  0  0  0
  189.6990  178.7500  211.0130 C   0  0  0  0  0  0  0  0  0  0  0  0
  188.6250  178.9470  210.1640 C   0  0  0  0  0  0  0  0  0  0  0  0
  187.7000  175.9770  208.4340 F   0  0  0  0  0  0  0  0  0  0  0  0
  193.3400  178.5380  208.6850 F   0  0  0  0  0  0  0  0  0  0  0  0
  192.9380  176.5970  209.5640 F   0  0  0  0  0  0  0  0  0  0  0  0
  192.3640  176.9960  207.5090 F   0  0  0  0  0  0  0  0  0  0  0  0
  186.4140  177.0270  209.8380 F   0  0  0  0  0  0  0  0  0  0  0  0
  185.5530  175.9250  208.1890 F   0  0  0  0  0  0  0  0  0  0  0  0
  184.8120  177.4410  206.6560 H   0  0  0  0  0  0  0  0  0  0  0  0
  184.8590  179.4480  205.2160 H   0  0  0  0  0  0  0  0  0  0  0  0
  186.7090  181.0830  205.4270 H   0  0  0  0  0  0  0  0  0  0  0  0
  188.5080  180.7040  207.0800 H   0  0  0  0  0  0  0  0  0  0  0  0
  190.1770  178.0010  207.2750 H   0  0  0  0  0  0  0  0  0  0  0  0
  192.6960  177.9370  211.7210 H   0  0  0  0  0  0  0  0  0  0  0  0
  190.8920  177.0340  217.5780 H   0  0  0  0  0  0  0  0  0  0  0  0
  191.7650  176.1700  216.2890 H   0  0  0  0  0  0  0  0  0  0  0  0
  193.9280  176.8350  217.3090 H   0  0  0  0  0  0  0  0  0  0  0  0
  192.9330  175.9340  218.4780 H   0  0  0  0  0  0  0  0  0  0  0  0
  193.9170  177.9340  219.5530 H   0  0  0  0  0  0  0  0  0  0  0  0
  192.1490  178.1040  219.4410 H   0  0  0  0  0  0  0  0  0  0  0  0
  193.3220  180.1940  218.7410 H   0  0  0  0  0  0  0  0  0  0  0  0
  194.1540  179.2760  217.4620 H   0  0  0  0  0  0  0  0  0  0  0  0
  191.1300  179.6010  217.7340 H   0  0  0  0  0  0  0  0  0  0  0  0
  192.1610  180.4360  216.5480 H   0  0  0  0  0  0  0  0  0  0  0  0
  190.1230  177.6150  215.1900 H   0  0  0  0  0  0  0  0  0  0  0  0
  190.1920  179.4030  215.4290 H   0  0  0  0  0  0  0  0  0  0  0  0
  187.6670  179.3020  210.5370 H   0  0  0  0  0  0  0  0  0  0  0  0
  1  2  1  0  0  0  0
  2  3  2  0  0  0  0
  3  4  1  0  0  0  0
  4  5  2  0  0  0  0
  5  6  1  0  0  0  0
  2  7  1  0  0  0  0
  6  7  2  0  0  0  0
  7  8  1  0  0  0  0
  8  9  2  0  0  0  0
  9 10  1  0  0  0  0
 10 11  1  0  0  0  0
 10 12  2  0  0  0  0
 12 13  1  0  0  0  0
 13 14  1  0  0  0  0
 14 15  1  0  0  0  0
 15 16  2  0  0  0  0
 16 17  1  0  0  0  0
 17 18  1  0  0  0  0
 18 19  1  0  0  0  0
 19 20  1  0  0  0  0
 20 21  1  0  0  0  0
 21 22  1  0  0  0  0
 18 23  1  0  0  0  0
 22 23  1  0  0  0  0
 15 24  1  0  0  0  0
 18 24  1  0  0  0  0
 14 25  2  0  0  0  0
 12 26  1  0  0  0  0
 25 26  1  0  0  0  0
  8 27  1  0  0  0  0
 26 27  2  0  0  0  0
  1 28  1  0  0  0  0
 11 29  1  0  0  0  0
 11 30  1  0  0  0  0
 11 31  1  0  0  0  0
  1 32  1  0  0  0  0
  1 33  1  0  0  0  0
  3 34  1  0  0  0  0
  4 35  1  0  0  0  0
  5 36  1  0  0  0  0
  6 37  1  0  0  0  0
  9 38  1  0  0  0  0
 13 39  1  0  0  0  0
 19 40  1  0  0  0  0
 19 41  1  0  0  0  0
 20 42  1  0  0  0  0
 20 43  1  0  0  0  0
 21 44  1  0  0  0  0
 21 45  1  0  0  0  0
 22 46  1  0  0  0  0
 22 47  1  0  0  0  0
 23 48  1  0  0  0  0
 23 49  1  0  0  0  0
 24 50  1  0  0  0  0
 24 51  1  0  0  0  0
 27 52  1  0  0  0  0
 53 54  1  0  0  0  0
 54 55  2  0  0  0  0
 55 56  1  0  0  0  0
 56 57  2  0  0  0  0
 57 58  1  0  0  0  0
 54 59  1  0  0  0  0
 58 59  2  0  0  0  0
 59 60  1  0  0  0  0
 60 61  2  0  0  0  0
 61 62  1  0  0  0  0
 62 63  1  0  0  0  0
 62 64  2  0  0  0  0
 64 65  1  0  0  0  0
 65 66  1  0  0  0  0
 66 67  1  0  0  0  0
 67 68  2  0  0  0  0
 68 69  1  0  0  0  0
 69 70  1  0  0  0  0
 70 71  1  0  0  0  0
 71 72  1  0  0  0  0
 72 73  1  0  0  0  0
 73 74  1  0  0  0  0
 70 75  1  0  0  0  0
 74 75  1  0  0  0  0
 67 76  1  0  0  0  0
 70 76  1  0  0  0  0
 66 77  2  0  0  0  0
 64 78  1  0  0  0  0
 77 78  1  0  0  0  0
 60 79  1  0  0  0  0
 78 79  2  0  0  0  0
 53 80  1  0  0  0  0
 63 81  1  0  0  0  0
 63 82  1  0  0  0  0
 63 83  1  0  0  0  0
 53 84  1  0  0  0  0
 53 85  1  0  0  0  0
 55 86  1  0  0  0  0
 56 87  1  0  0  0  0
 57 88  1  0  0  0  0
 58 89  1  0  0  0  0
 61 90  1  0  0  0  0
 65 91  1  0  0  0  0
 71 92  1  0  0  0  0
 71 93  1  0  0  0  0
 72 94  1  0  0  0  0
 72 95  1  0  0  0  0
 73 96  1  0  0  0  0
 73 97  1  0  0  0  0
 74 98  1  0  0  0  0
 74 99  1  0  0  0  0
 75100  1  0  0  0  0
 75101  1  0  0  0  0
 76102  1  0  0  0  0
 76103  1  0  0  0  0
 79104  1  0  0  0  0
105106  1  0  0  0  0
106107  2  0  0  0  0
107108  1  0  0  0  0
108109  2  0  0  0  0
109110  1  0  0  0  0
106111  1  0  0  0  0
110111  2  0  0  0  0
111112  1  0  0  0  0
112113  2  0  0  0  0
113114  1  0  0  0  0
114115  1  0  0  0  0
114116  2  0  0  0  0
116117  1  0  0  0  0
117118  1  0  0  0  0
118119  1  0  0  0  0
119120  2  0  0  0  0
120121  1  0  0  0  0
121122  1  0  0  0  0
122123  1  0  0  0  0
123124  1  0  0  0  0
124125  1  0  0  0  0
125126  1  0  0  0  0
122127  1  0  0  0  0
126127  1  0  0  0  0
119128  1  0  0  0  0
122128  1  0  0  0  0
118129  2  0  0  0  0
116130  1  0  0  0  0
129130  1  0  0  0  0
112131  1  0  0  0  0
130131  2  0  0  0  0
105132  1  0  0  0  0
115133  1  0  0  0  0
115134  1  0  0  0  0
115135  1  0  0  0  0
105136  1  0  0  0  0
105137  1  0  0  0  0
107138  1  0  0  0  0
108139  1  0  0  0  0
109140  1  0  0  0  0
110141  1  0  0  0  0
113142  1  0  0  0  0
117143  1  0  0  0  0
123144  1  0  0  0  0
123145  1  0  0  0  0
124146  1  0  0  0  0
124147  1  0  0  0  0
125148  1  0  0  0  0
125149  1  0  0  0  0
126150  1  0  0  0  0
126151  1  0  0  0  0
127152  1  0  0  0  0
127153  1  0  0  0  0
128154  1  0  0  0  0
128155  1  0  0  0  0
131156  1  0  0  0  0
157158  1  0  0  0  0
158159  2  0  0  0  0
159160  1  0  0  0  0
160161  2  0  0  0  0
161162  1  0  0  0  0
158163  1  0  0  0  0
162163  2  0  0  0  0
163164  1  0  0  0  0
164165  2  0  0  0  0
165166  1  0  0  0  0
166167  1  0  0  0  0
166168  2  0  0  0  0
168169  1  0  0  0  0
169170  1  0  0  0  0
170171  1  0  0  0  0
171172  2  0  0  0  0
172173  1  0  0  0  0
173174  1  0  0  0  0
174175  1  0  0  0  0
175176  1  0  0  0  0
176177  1  0  0  0  0
177178  1  0  0  0  0
174179  1  0  0  0  0
178179  1  0  0  0  0
171180  1  0  0  0  0
174180  1  0  0  0  0
170181  2  0  0  0  0
168182  1  0  0  0  0
181182  1  0  0  0  0
164183  1  0  0  0  0
182183  2  0  0  0  0
157184  1  0  0  0  0
167185  1  0  0  0  0
167186  1  0  0  0  0
167187  1  0  0  0  0
157188  1  0  0  0  0
157189  1  0  0  0  0
159190  1  0  0  0  0
160191  1  0  0  0  0
161192  1  0  0  0  0
162193  1  0  0  0  0
165194  1  0  0  0  0
169195  1  0  0  0  0
175196  1  0  0  0  0
175197  1  0  0  0  0
176198  1  0  0  0  0
176199  1  0  0  0  0
177200  1  0  0  0  0
177201  1  0  0  0  0
178202  1  0  0  0  0
178203  1  0  0  0  0
179204  1  0  0  0  0
179205  1  0  0  0  0
180206  1  0  0  0  0
180207  1  0  0  0  0
183208  1  0  0  0  0
M  END
$$$$
