8P3E
  PyMOL3.1          3D                             0

 29 31  0  0  0  0  0  0  0  0999 V2000
   57.6790   60.7660   13.6460 Cl  0  0  0  0  0  0  0  0  0  0  0  0
   62.7960   53.3510   19.9820 O   0  0  0  0  0  0  0  0  0  0  0  0
   62.7780   54.3110   20.7990 C   0  0  0  0  0  0  0  0  0  0  0  0
   63.1160   55.5120   20.5790 O   0  0  0  0  0  0  0  0  0  0  0  0
   62.3370   53.9780   22.1660 C   0  0  0  0  0  0  0  0  0  0  0  0
   62.0040   52.6920   22.5190 C   0  0  0  0  0  0  0  0  0  0  0  0
   61.6010   52.4300   23.8110 C   0  0  0  0  0  0  0  0  0  0  0  0
   61.5330   53.4340   24.7480 C   0  0  0  0  0  0  0  0  0  0  0  0
   61.8660   54.7230   24.3960 C   0  0  0  0  0  0  0  0  0  0  0  0
   62.2640   54.9770   23.1020 C   0  0  0  0  0  0  0  0  0  0  0  0
   62.6300   56.2830   22.6520 N   0  0  0  0  0  0  0  0  0  0  0  0
   61.9970   57.6420   23.4720 S   0  0  0  0  0  0  0  0  0  0  0  0
   62.0490   57.5680   24.9190 O   0  0  0  0  0  0  0  0  0  0  0  0
   62.6160   58.7970   22.8530 O   0  0  0  0  0  0  0  0  0  0  0  0
   60.2890   57.6890   22.9670 C   0  0  0  0  0  0  0  0  0  0  0  0
   59.3350   57.2850   23.8760 C   0  0  0  0  0  0  0  0  0  0  0  0
   58.0100   57.3320   23.5010 C   0  0  0  0  0  0  0  0  0  0  0  0
   57.6550   57.7830   22.2450 C   0  0  0  0  0  0  0  0  0  0  0  0
   58.6230   58.1690   21.3460 C   0  0  0  0  0  0  0  0  0  0  0  0
   59.9540   58.1320   21.7040 C   0  0  0  0  0  0  0  0  0  0  0  0
   58.1770   58.6510   20.0090 C   0  0  0  0  0  0  0  0  0  0  0  0
   57.2420   59.4340   19.9410 O   0  0  0  0  0  0  0  0  0  0  0  0
   58.8390   58.1980   18.8890 N   0  0  0  0  0  0  0  0  0  0  0  0
   58.5340   58.8060   17.6370 C   0  0  0  0  0  0  0  0  0  0  0  0
   57.2450   58.8420   17.1480 C   0  0  0  0  0  0  0  0  0  0  0  0
   56.9690   59.4400   15.9270 C   0  0  0  0  0  0  0  0  0  0  0  0
   57.9870   60.0110   15.1900 C   0  0  0  0  0  0  0  0  0  0  0  0
   59.2750   59.9800   15.6800 C   0  0  0  0  0  0  0  0  0  0  0  0
   59.5450   59.3840   16.9010 C   0  0  0  0  0  0  0  0  0  0  0  0
  2  3  2  0  0  0  0
  3  4  1  0  0  0  0
  3  5  1  0  0  0  0
  5  6  2  0  0  0  0
  6  7  1  0  0  0  0
  7  8  2  0  0  0  0
  8  9  1  0  0  0  0
  5 10  1  0  0  0  0
  9 10  2  0  0  0  0
 10 11  1  0  0  0  0
 11 12  1  0  0  0  0
 12 13  2  0  0  0  0
 12 14  2  0  0  0  0
 12 15  1  0  0  0  0
 15 16  2  0  0  0  0
 16 17  1  0  0  0  0
 17 18  2  0  0  0  0
 18 19  1  0  0  0  0
 15 20  1  0  0  0  0
 19 20  2  0  0  0  0
 19 21  1  0  0  0  0
 21 22  2  0  0  0  0
 21 23  1  0  0  0  0
 23 24  1  0  0  0  0
 24 25  1  0  0  0  0
 25 26  2  0  0  0  0
  1 27  1  0  0  0  0
 26 27  1  0  0  0  0
 27 28  2  0  0  0  0
 24 29  2  0  0  0  0
 28 29  1  0  0  0  0
M  END
$$$$
