7LW1
  PyMOL3.1          3D                             0

 53 56  0  0  0  0  0  0  0  0999 V2000
  129.0690  143.9400  147.6170 O   0  0  0  0  0  0  0  0  0  0  0  0
  127.9100  144.6870  147.3220 C   0  0  0  0  0  0  0  0  0  0  0  0
  127.7550  144.9800  145.8360 C   0  0  0  0  0  0  0  0  0  0  0  0
  128.9290  144.5940  144.9080 C   0  0  0  0  0  0  0  0  0  0  0  0
  128.5990  143.9350  143.6280 C   0  0  0  0  0  0  0  0  0  0  0  0
  128.3330  143.4020  142.5920 C   0  0  0  0  0  0  0  0  0  0  0  0
  128.5200  142.7500  139.0600 C   0  0  0  0  0  0  0  0  0  0  0  0
  128.7620  143.3010  140.3140 C   0  0  0  0  0  0  0  0  0  0  0  0
  128.0270  142.7870  141.3600 C   0  0  0  0  0  0  0  0  0  0  0  0
  127.0920  141.7670  141.1990 C   0  0  0  0  0  0  0  0  0  0  0  0
  126.8430  141.2240  139.9340 C   0  0  0  0  0  0  0  0  0  0  0  0
  127.5890  141.7360  138.8570 C   0  0  0  0  0  0  0  0  0  0  0  0
  124.2650  141.9850  146.6080 C   0  0  0  0  0  0  0  0  0  0  0  0
  123.2300  141.1780  146.3290 C   0  0  0  0  0  0  0  0  0  0  0  0
  121.9120  141.2350  146.7700 C   0  0  0  0  0  0  0  0  0  0  0  0
  121.7570  142.3220  147.5910 C   0  0  0  0  0  0  0  0  0  0  0  0
  122.7870  143.2230  147.9310 C   0  0  0  0  0  0  0  0  0  0  0  0
  124.0360  143.0860  147.4430 C   0  0  0  0  0  0  0  0  0  0  0  0
  120.5450  142.6230  148.2080 N   0  0  0  0  0  0  0  0  0  0  0  0
  119.6110  141.7130  148.6320 C   0  0  0  0  0  0  0  0  0  0  0  0
  119.8590  140.5470  148.3910 O   0  0  0  0  0  0  0  0  0  0  0  0
  118.4100  142.2220  149.3280 C   0  0  0  0  0  0  0  0  0  0  0  0
  125.4810  141.5730  145.8890 C   0  0  0  0  0  0  0  0  0  0  0  0
  125.6940  141.2900  144.4970 N   0  0  0  0  0  0  0  0  0  0  0  0
  125.0200  140.3820  143.8440 C   0  0  0  0  0  0  0  0  0  0  0  0
  124.0240  139.5750  144.4790 C   0  0  0  0  0  0  0  0  0  0  0  0
  123.2540  140.0650  145.5280 O   0  0  0  0  0  0  0  0  0  0  0  0
  126.5890  142.0150  143.7010 N   0  0  0  0  0  0  0  0  0  0  0  0
  126.4300  141.4270  142.5040 C   0  0  0  0  0  0  0  0  0  0  0  0
  125.4410  140.4330  142.5480 C   0  0  0  0  0  0  0  0  0  0  0  0
  128.8360  143.0150  147.4830 H   0  0  0  0  0  0  0  0  0  0  0  0
  127.8730  145.7230  147.7060 H   0  0  0  0  0  0  0  0  0  0  0  0
  127.0520  144.0620  147.5820 H   0  0  0  0  0  0  0  0  0  0  0  0
  127.9000  146.0260  145.6830 H   0  0  0  0  0  0  0  0  0  0  0  0
  126.7040  144.7680  145.5800 H   0  0  0  0  0  0  0  0  0  0  0  0
  129.6030  143.8610  145.3390 H   0  0  0  0  0  0  0  0  0  0  0  0
  129.5290  145.4970  144.6710 H   0  0  0  0  0  0  0  0  0  0  0  0
  129.0350  143.0610  138.1470 H   0  0  0  0  0  0  0  0  0  0  0  0
  129.4180  144.0700  140.6980 H   0  0  0  0  0  0  0  0  0  0  0  0
  126.0660  140.4310  139.9760 H   0  0  0  0  0  0  0  0  0  0  0  0
  127.4090  141.3020  137.8410 H   0  0  0  0  0  0  0  0  0  0  0  0
  121.4220  140.3710  146.3100 H   0  0  0  0  0  0  0  0  0  0  0  0
  122.4540  143.9990  148.5910 H   0  0  0  0  0  0  0  0  0  0  0  0
  124.7690  143.8280  147.7510 H   0  0  0  0  0  0  0  0  0  0  0  0
  120.6440  143.6150  148.2800 H   0  0  0  0  0  0  0  0  0  0  0  0
  118.9460  143.0040  149.8400 H   0  0  0  0  0  0  0  0  0  0  0  0
  117.9300  141.4650  149.9700 H   0  0  0  0  0  0  0  0  0  0  0  0
  117.7930  142.6040  148.5390 H   0  0  0  0  0  0  0  0  0  0  0  0
  125.7590  140.7520  146.5140 H   0  0  0  0  0  0  0  0  0  0  0  0
  126.1830  142.4010  145.8870 H   0  0  0  0  0  0  0  0  0  0  0  0
  124.7740  138.8930  144.8820 H   0  0  0  0  0  0  0  0  0  0  0  0
  123.3650  139.3010  143.6330 H   0  0  0  0  0  0  0  0  0  0  0  0
  125.3650  140.0350  141.5830 H   0  0  0  0  0  0  0  0  0  0  0  0
  1  2  1  0  0  0  0
  2  3  1  0  0  0  0
  3  4  1  0  0  0  0
  4  5  1  0  0  0  0
  5  6  3  0  0  0  0
  7  8  2  0  0  0  0
  6  9  1  0  0  0  0
  8  9  1  0  0  0  0
  9 10  2  0  0  0  0
 10 11  1  0  0  0  0
  7 12  1  0  0  0  0
 11 12  2  0  0  0  0
 13 14  1  0  0  0  0
 14 15  2  0  0  0  0
 15 16  1  0  0  0  0
 16 17  2  0  0  0  0
 13 18  2  0  0  0  0
 17 18  1  0  0  0  0
 16 19  1  0  0  0  0
 19 20  1  0  0  0  0
 20 21  2  0  0  0  0
 20 22  1  0  0  0  0
 13 23  1  0  0  0  0
 23 24  1  0  0  0  0
 24 25  1  0  0  0  0
 25 26  1  0  0  0  0
 14 27  1  0  0  0  0
 26 27  1  0  0  0  0
 24 28  1  0  0  0  0
 10 29  1  0  0  0  0
 28 29  2  0  0  0  0
 25 30  2  0  0  0  0
 29 30  1  0  0  0  0
  1 31  1  0  0  0  0
  2 32  1  0  0  0  0
  2 33  1  0  0  0  0
  3 34  1  0  0  0  0
  3 35  1  0  0  0  0
  4 36  1  0  0  0  0
  4 37  1  0  0  0  0
  7 38  1  0  0  0  0
  8 39  1  0  0  0  0
 11 40  1  0  0  0  0
 12 41  1  0  0  0  0
 15 42  1  0  0  0  0
 17 43  1  0  0  0  0
 18 44  1  0  0  0  0
 19 45  1  0  0  0  0
 22 46  1  0  0  0  0
 22 47  1  0  0  0  0
 22 48  1  0  0  0  0
 23 49  1  0  0  0  0
 23 50  1  0  0  0  0
 26 51  1  0  0  0  0
 26 52  1  0  0  0  0
 30 53  1  0  0  0  0
M  END
$$$$
