9CZA
  PyMOL3.1          3D                             0

 33 37  0  0  0  0  0  0  0  0999 V2000
    6.6750  -44.3770  -14.8620 O   0  0  0  0  0  0  0  0  0  0  0  0
    5.7240  -44.4520  -15.6920 C   0  0  0  0  0  0  0  0  0  0  0  0
    4.5990  -43.9460  -15.4090 O   0  5  0  0  0  0  0  0  0  0  0  0
    5.9470  -45.1520  -17.0470 C   0  0  0  0  0  0  0  0  0  0  0  0
    5.4530  -46.6080  -16.9930 C   0  0  0  0  0  0  0  0  0  0  0  0
    6.0190  -47.4880  -16.0770 C   0  0  0  0  0  0  0  0  0  0  0  0
    5.5860  -48.8100  -16.0240 C   0  0  0  0  0  0  0  0  0  0  0  0
    4.5890  -49.2510  -16.8900 C   0  0  0  0  0  0  0  0  0  0  0  0
    4.0240  -48.3740  -17.8090 C   0  0  0  0  0  0  0  0  0  0  0  0
    4.4550  -47.0540  -17.8620 C   0  0  0  0  0  0  0  0  0  0  0  0
    3.8260  -46.0960  -18.8880 C   0  0  0  0  0  0  0  0  0  0  0  0
    2.4240  -46.4790  -19.3940 C   0  0  0  0  0  0  0  0  0  0  0  0
    3.5100  -46.0440  -20.3950 C   0  0  0  0  0  0  0  0  0  0  0  0
    7.4140  -45.1990  -17.3500 N   0  0  0  0  0  0  0  0  0  0  0  0
    8.0170  -43.8250  -17.3790 C   0  0  0  0  0  0  0  0  0  0  0  0
    9.1160  -43.8640  -18.4550 C   0  0  0  0  0  0  0  0  0  0  0  0
    8.7600  -45.0380  -19.3830 C   0  0  0  0  0  0  0  0  0  0  0  0
    9.8590  -45.8890  -19.5160 O   0  0  0  0  0  0  0  0  0  0  0  0
   10.8600  -45.3730  -20.3430 C   0  0  0  0  0  0  0  0  0  0  0  0
   11.6540  -46.5550  -20.9220 C   0  0  0  0  0  0  0  0  0  0  0  0
   12.9980  -46.0840  -21.5010 C   0  0  0  0  0  0  0  0  0  0  0  0
   13.8720  -47.2550  -21.9860 C   0  0  0  0  0  0  0  0  0  0  0  0
   14.1350  -47.1010  -23.4900 C   0  0  0  0  0  0  0  0  0  0  0  0
   14.9630  -46.1510  -23.9010 N   0  0  0  0  0  0  0  0  0  0  0  0
   15.2070  -45.9720  -25.2080 C   0  0  0  0  0  0  0  0  0  0  0  0
   14.6000  -46.7900  -26.1590 C   0  0  0  0  0  0  0  0  0  0  0  0
   13.7240  -47.7940  -25.7620 C   0  0  0  0  0  0  0  0  0  0  0  0
   13.4910  -47.9480  -24.4000 C   0  0  0  0  0  0  0  0  0  0  0  0
   14.8690  -46.5960  -27.6600 C   0  0  0  0  0  0  0  0  0  0  0  0
   15.3750  -45.1810  -27.9790 C   0  0  0  0  0  0  0  0  0  0  0  0
   16.5130  -44.7670  -27.0330 C   0  0  0  0  0  0  0  0  0  0  0  0
   16.1560  -44.8670  -25.5780 N   0  0  0  0  0  0  0  0  0  0  0  0
    7.6110  -45.8060  -18.7060 C   0  0  0  0  0  0  0  0  0  0  0  0
  1  2  1  0  0  0  0
  2  3  2  0  0  0  0
  2  4  1  0  0  0  0
  4  5  1  0  0  0  0
  5  6  2  0  0  0  0
  6  7  1  0  0  0  0
  7  8  2  0  0  0  0
  8  9  1  0  0  0  0
  5 10  1  0  0  0  0
  9 10  2  0  0  0  0
 10 11  1  0  0  0  0
 11 12  1  0  0  0  0
 11 13  1  0  0  0  0
 12 13  1  0  0  0  0
  4 14  1  0  0  0  0
 14 15  1  0  0  0  0
 15 16  1  0  0  0  0
 16 17  1  0  0  0  0
 17 18  1  0  0  0  0
 18 19  1  0  0  0  0
 19 20  1  0  0  0  0
 20 21  1  0  0  0  0
 21 22  1  0  0  0  0
 22 23  1  0  0  0  0
 23 24  1  0  0  0  0
 24 25  2  0  0  0  0
 25 26  1  0  0  0  0
 26 27  2  0  0  0  0
 23 28  2  0  0  0  0
 27 28  1  0  0  0  0
 26 29  1  0  0  0  0
 29 30  1  0  0  0  0
 30 31  1  0  0  0  0
 25 32  1  0  0  0  0
 31 32  1  0  0  0  0
 14 33  1  0  0  0  0
 17 33  1  0  0  0  0
M  END
$$$$
