8UT1
  PyMOL3.1          3D                             0

135145  0  0  0  0  0  0  0  0999 V2000
  132.8950  115.8370  183.6560 Cl  0  0  0  0  0  0  0  0  0  0  0  0
  130.3660  114.0250  178.5730 C   0  0  0  0  0  0  0  0  0  0  0  0
  128.3430  115.1180  178.2080 N   0  0  0  0  0  0  0  0  0  0  0  0
  129.1840  113.0250  178.6310 C   0  0  0  0  0  0  0  0  0  0  0  0
  132.2030  116.0910  181.1590 N   0  0  0  0  0  0  0  0  0  0  0  0
  128.1370  113.7330  177.7810 C   0  0  0  0  0  0  0  0  0  0  0  0
  128.5840  113.7410  176.3330 C   0  0  0  0  0  0  0  0  0  0  0  0
  129.6660  114.8150  176.3000 C   0  0  0  0  0  0  0  0  0  0  0  0
  129.7500  115.1970  177.7800 C   0  0  0  0  0  0  0  0  0  0  0  0
  130.9220  114.4780  179.9070 C   0  0  0  0  0  0  0  0  0  0  0  0
  130.8420  113.6890  181.0400 C   0  0  0  0  0  0  0  0  0  0  0  0
  131.4310  114.0920  182.2220 C   0  0  0  0  0  0  0  0  0  0  0  0
  132.0990  115.2930  182.2080 C   0  0  0  0  0  0  0  0  0  0  0  0
  131.6310  115.6600  180.0280 C   0  0  0  0  0  0  0  0  0  0  0  0
  128.2340  115.2360  179.0530 H   0  0  0  0  0  0  0  0  0  0  0  0
  131.1510  113.6170  178.1740 H   0  0  0  0  0  0  0  0  0  0  0  0
  127.2490  113.3490  177.8640 H   0  0  0  0  0  0  0  0  0  0  0  0
  130.2310  116.0300  177.9070 H   0  0  0  0  0  0  0  0  0  0  0  0
  130.3880  112.8790  181.0060 H   0  0  0  0  0  0  0  0  0  0  0  0
  131.3790  113.5750  182.9920 H   0  0  0  0  0  0  0  0  0  0  0  0
  131.7160  116.1930  179.2700 H   0  0  0  0  0  0  0  0  0  0  0  0
  129.4230  112.1580  178.2680 H   0  0  0  0  0  0  0  0  0  0  0  0
  128.8760  112.8770  179.5390 H   0  0  0  0  0  0  0  0  0  0  0  0
  128.9310  112.8770  176.0620 H   0  0  0  0  0  0  0  0  0  0  0  0
  127.8510  113.9540  175.7340 H   0  0  0  0  0  0  0  0  0  0  0  0
  130.5100  114.4760  175.9610 H   0  0  0  0  0  0  0  0  0  0  0  0
  129.4180  115.5680  175.7410 H   0  0  0  0  0  0  0  0  0  0  0  0
  157.6740  126.2670  183.6630 Cl  0  0  0  0  0  0  0  0  0  0  0  0
  158.6170  123.3020  178.5800 C   0  0  0  0  0  0  0  0  0  0  0  0
  156.9530  121.7150  178.2150 N   0  0  0  0  0  0  0  0  0  0  0  0
  159.2030  121.8690  178.6380 C   0  0  0  0  0  0  0  0  0  0  0  0
  157.2190  125.6870  181.1660 N   0  0  0  0  0  0  0  0  0  0  0  0
  158.2070  121.0910  177.7880 C   0  0  0  0  0  0  0  0  0  0  0  0
  158.3370  121.5190  176.3400 C   0  0  0  0  0  0  0  0  0  0  0  0
  157.6500  122.8800  176.3060 C   0  0  0  0  0  0  0  0  0  0  0  0
  157.3130  123.0780  177.7860 C   0  0  0  0  0  0  0  0  0  0  0  0
  158.3580  123.9710  179.9140 C   0  0  0  0  0  0  0  0  0  0  0  0
  159.0840  123.6510  181.0480 C   0  0  0  0  0  0  0  0  0  0  0  0
  158.8810  124.3360  182.2290 C   0  0  0  0  0  0  0  0  0  0  0  0
  157.9450  125.3420  182.2150 C   0  0  0  0  0  0  0  0  0  0  0  0
  157.4530  125.0090  180.0340 C   0  0  0  0  0  0  0  0  0  0  0  0
  156.8070  121.6480  179.0600 H   0  0  0  0  0  0  0  0  0  0  0  0
  159.2470  123.9220  178.1820 H   0  0  0  0  0  0  0  0  0  0  0  0
  158.2980  120.1280  177.8710 H   0  0  0  0  0  0  0  0  0  0  0  0
  156.6680  123.7920  177.9130 H   0  0  0  0  0  0  0  0  0  0  0  0
  159.7140  122.9680  181.0140 H   0  0  0  0  0  0  0  0  0  0  0  0
  159.3570  124.1260  183.0000 H   0  0  0  0  0  0  0  0  0  0  0  0
  156.9720  125.2550  179.2760 H   0  0  0  0  0  0  0  0  0  0  0  0
  160.1020  121.8280  178.2750 H   0  0  0  0  0  0  0  0  0  0  0  0
  159.2490  121.5300  179.5460 H   0  0  0  0  0  0  0  0  0  0  0  0
  159.2670  121.5820  176.0690 H   0  0  0  0  0  0  0  0  0  0  0  0
  157.9080  120.8880  175.7410 H   0  0  0  0  0  0  0  0  0  0  0  0
  158.2330  123.5770  175.9670 H   0  0  0  0  0  0  0  0  0  0  0  0
  156.8570  122.8760  175.7470 H   0  0  0  0  0  0  0  0  0  0  0  0
  155.4240  153.0550  183.6590 Cl  0  0  0  0  0  0  0  0  0  0  0  0
  158.5360  153.0350  178.5770 C   0  0  0  0  0  0  0  0  0  0  0  0
  159.5310  150.9610  178.2120 N   0  0  0  0  0  0  0  0  0  0  0  0
  160.0800  153.1490  178.6350 C   0  0  0  0  0  0  0  0  0  0  0  0
  155.8360  152.4420  181.1620 N   0  0  0  0  0  0  0  0  0  0  0  0
  160.5120  151.9610  177.7850 C   0  0  0  0  0  0  0  0  0  0  0  0
  160.1450  152.2170  176.3370 C   0  0  0  0  0  0  0  0  0  0  0  0
  158.6380  151.9840  176.3030 C   0  0  0  0  0  0  0  0  0  0  0  0
  158.3460  151.7250  177.7830 C   0  0  0  0  0  0  0  0  0  0  0  0
  157.8200  152.9950  179.9100 C   0  0  0  0  0  0  0  0  0  0  0  0
  158.3480  153.5860  181.0440 C   0  0  0  0  0  0  0  0  0  0  0  0
  157.6350  153.6060  182.2250 C   0  0  0  0  0  0  0  0  0  0  0  0
  156.3880  153.0260  182.2110 C   0  0  0  0  0  0  0  0  0  0  0  0
  156.5520  152.4550  180.0310 C   0  0  0  0  0  0  0  0  0  0  0  0
  159.5490  150.8020  179.0570 H   0  0  0  0  0  0  0  0  0  0  0  0
  158.1410  153.8250  178.1780 H   0  0  0  0  0  0  0  0  0  0  0  0
  161.4560  151.7500  177.8680 H   0  0  0  0  0  0  0  0  0  0  0  0
  157.4680  151.3330  177.9100 H   0  0  0  0  0  0  0  0  0  0  0  0
  159.1920  153.9750  181.0100 H   0  0  0  0  0  0  0  0  0  0  0  0
  157.9810  153.9930  182.9960 H   0  0  0  0  0  0  0  0  0  0  0  0
  156.1700  152.0740  179.2730 H   0  0  0  0  0  0  0  0  0  0  0  0
  160.3970  153.9910  178.2720 H   0  0  0  0  0  0  0  0  0  0  0  0
  160.4160  153.0880  179.5430 H   0  0  0  0  0  0  0  0  0  0  0  0
  160.3730  153.1200  176.0660 H   0  0  0  0  0  0  0  0  0  0  0  0
  160.6130  151.6140  175.7380 H   0  0  0  0  0  0  0  0  0  0  0  0
  158.1560  152.7540  175.9640 H   0  0  0  0  0  0  0  0  0  0  0  0
  158.3970  151.2290  175.7440 H   0  0  0  0  0  0  0  0  0  0  0  0
  115.3170  136.1830  183.6580 Cl  0  0  0  0  0  0  0  0  0  0  0  0
  112.8110  138.0280  178.5760 C   0  0  0  0  0  0  0  0  0  0  0  0
  113.2250  140.2900  178.2110 N   0  0  0  0  0  0  0  0  0  0  0  0
  111.4950  138.8430  178.6340 C   0  0  0  0  0  0  0  0  0  0  0  0
  115.3440  136.9200  181.1610 N   0  0  0  0  0  0  0  0  0  0  0  0
  111.8440  140.0580  177.7840 C   0  0  0  0  0  0  0  0  0  0  0  0
  111.9900  139.6350  176.3360 C   0  0  0  0  0  0  0  0  0  0  0  0
  113.3460  138.9380  176.3020 C   0  0  0  0  0  0  0  0  0  0  0  0
  113.7350  138.9760  177.7820 C   0  0  0  0  0  0  0  0  0  0  0  0
  113.4140  137.6390  179.9090 C   0  0  0  0  0  0  0  0  0  0  0  0
  112.6390  137.4710  181.0430 C   0  0  0  0  0  0  0  0  0  0  0  0
  113.2050  137.0360  182.2240 C   0  0  0  0  0  0  0  0  0  0  0  0
  114.5540  136.7720  182.2100 C   0  0  0  0  0  0  0  0  0  0  0  0
  114.7570  137.3310  180.0300 C   0  0  0  0  0  0  0  0  0  0  0  0
  113.3040  140.4300  179.0560 H   0  0  0  0  0  0  0  0  0  0  0  0
  112.6660  137.1560  178.1770 H   0  0  0  0  0  0  0  0  0  0  0  0
  111.2040  140.7830  177.8670 H   0  0  0  0  0  0  0  0  0  0  0  0
  114.6760  138.7770  177.9090 H   0  0  0  0  0  0  0  0  0  0  0  0
  111.7280  137.6530  181.0090 H   0  0  0  0  0  0  0  0  0  0  0  0
  112.6970  136.9260  182.9950 H   0  0  0  0  0  0  0  0  0  0  0  0
  115.2900  137.4150  179.2720 H   0  0  0  0  0  0  0  0  0  0  0  0
  110.7440  138.3480  178.2710 H   0  0  0  0  0  0  0  0  0  0  0  0
  111.2590  139.0900  179.5420 H   0  0  0  0  0  0  0  0  0  0  0  0
  111.2750  139.0380  176.0650 H   0  0  0  0  0  0  0  0  0  0  0  0
  111.9660  140.3980  175.7370 H   0  0  0  0  0  0  0  0  0  0  0  0
  113.2840  138.0310  175.9630 H   0  0  0  0  0  0  0  0  0  0  0  0
  113.9850  139.4070  175.7430 H   0  0  0  0  0  0  0  0  0  0  0  0
  129.2450  159.2010  183.6590 Cl  0  0  0  0  0  0  0  0  0  0  0  0
  130.2250  162.1540  178.5770 C   0  0  0  0  0  0  0  0  0  0  0  0
  132.5050  162.4590  178.2120 N   0  0  0  0  0  0  0  0  0  0  0  0
  130.5940  163.6570  178.6350 C   0  0  0  0  0  0  0  0  0  0  0  0
  129.9540  159.4030  181.1620 N   0  0  0  0  0  0  0  0  0  0  0  0
  131.8570  163.7000  177.7850 C   0  0  0  0  0  0  0  0  0  0  0  0
  131.5000  163.4310  176.3370 C   0  0  0  0  0  0  0  0  0  0  0  0
  131.2560  161.9250  176.3030 C   0  0  0  0  0  0  0  0  0  0  0  0
  131.4120  161.5680  177.7830 C   0  0  0  0  0  0  0  0  0  0  0  0
  130.0420  161.4600  179.9100 C   0  0  0  0  0  0  0  0  0  0  0  0
  129.6430  162.1450  181.0440 C   0  0  0  0  0  0  0  0  0  0  0  0
  129.4040  161.4730  182.2250 C   0  0  0  0  0  0  0  0  0  0  0  0
  129.5700  160.1080  182.2110 C   0  0  0  0  0  0  0  0  0  0  0  0
  130.1640  160.0880  180.0310 C   0  0  0  0  0  0  0  0  0  0  0  0
  132.6620  162.4270  179.0570 H   0  0  0  0  0  0  0  0  0  0  0  0
  129.3510  162.0220  178.1780 H   0  0  0  0  0  0  0  0  0  0  0  0
  132.3490  164.5330  177.8670 H   0  0  0  0  0  0  0  0  0  0  0  0
  131.5140  160.6110  177.9100 H   0  0  0  0  0  0  0  0  0  0  0  0
  129.5340  163.0680  181.0100 H   0  0  0  0  0  0  0  0  0  0  0  0
  129.1420  161.9220  182.9960 H   0  0  0  0  0  0  0  0  0  0  0  0
  130.4080  159.6070  179.2730 H   0  0  0  0  0  0  0  0  0  0  0  0
  129.8910  164.2180  178.2720 H   0  0  0  0  0  0  0  0  0  0  0  0
  130.7560  163.9580  179.5430 H   0  0  0  0  0  0  0  0  0  0  0  0
  130.7110  163.9260  176.0660 H   0  0  0  0  0  0  0  0  0  0  0  0
  132.2180  163.6890  175.7380 H   0  0  0  0  0  0  0  0  0  0  0  0
  130.3740  161.7040  175.9640 H   0  0  0  0  0  0  0  0  0  0  0  0
  131.8990  161.4630  175.7440 H   0  0  0  0  0  0  0  0  0  0  0  0
  2  4  1  0  0  0  0
  3  6  1  0  0  0  0
  4  6  1  0  0  0  0
  6  7  1  0  0  0  0
  7  8  1  0  0  0  0
  2  9  1  0  0  0  0
  3  9  1  0  0  0  0
  8  9  1  0  0  0  0
  2 10  1  0  0  0  0
 10 11  2  0  0  0  0
 11 12  1  0  0  0  0
  1 13  1  0  0  0  0
  5 13  1  0  0  0  0
 12 13  2  0  0  0  0
  5 14  2  0  0  0  0
 10 14  1  0  0  0  0
  3 15  1  0  0  0  0
  2 16  1  0  0  0  0
  6 17  1  0  0  0  0
  9 18  1  0  0  0  0
 11 19  1  0  0  0  0
 12 20  1  0  0  0  0
 14 21  1  0  0  0  0
  4 22  1  0  0  0  0
  4 23  1  0  0  0  0
  7 24  1  0  0  0  0
  7 25  1  0  0  0  0
  8 26  1  0  0  0  0
  8 27  1  0  0  0  0
 29 31  1  0  0  0  0
 30 33  1  0  0  0  0
 31 33  1  0  0  0  0
 33 34  1  0  0  0  0
 34 35  1  0  0  0  0
 29 36  1  0  0  0  0
 30 36  1  0  0  0  0
 35 36  1  0  0  0  0
 29 37  1  0  0  0  0
 37 38  2  0  0  0  0
 38 39  1  0  0  0  0
 28 40  1  0  0  0  0
 32 40  1  0  0  0  0
 39 40  2  0  0  0  0
 32 41  2  0  0  0  0
 37 41  1  0  0  0  0
 30 42  1  0  0  0  0
 29 43  1  0  0  0  0
 33 44  1  0  0  0  0
 36 45  1  0  0  0  0
 38 46  1  0  0  0  0
 39 47  1  0  0  0  0
 41 48  1  0  0  0  0
 31 49  1  0  0  0  0
 31 50  1  0  0  0  0
 34 51  1  0  0  0  0
 34 52  1  0  0  0  0
 35 53  1  0  0  0  0
 35 54  1  0  0  0  0
 56 58  1  0  0  0  0
 57 60  1  0  0  0  0
 58 60  1  0  0  0  0
 60 61  1  0  0  0  0
 61 62  1  0  0  0  0
 56 63  1  0  0  0  0
 57 63  1  0  0  0  0
 62 63  1  0  0  0  0
 56 64  1  0  0  0  0
 64 65  2  0  0  0  0
 65 66  1  0  0  0  0
 55 67  1  0  0  0  0
 59 67  1  0  0  0  0
 66 67  2  0  0  0  0
 59 68  2  0  0  0  0
 64 68  1  0  0  0  0
 57 69  1  0  0  0  0
 56 70  1  0  0  0  0
 60 71  1  0  0  0  0
 63 72  1  0  0  0  0
 65 73  1  0  0  0  0
 66 74  1  0  0  0  0
 68 75  1  0  0  0  0
 58 76  1  0  0  0  0
 58 77  1  0  0  0  0
 61 78  1  0  0  0  0
 61 79  1  0  0  0  0
 62 80  1  0  0  0  0
 62 81  1  0  0  0  0
 83 85  1  0  0  0  0
 84 87  1  0  0  0  0
 85 87  1  0  0  0  0
 87 88  1  0  0  0  0
 88 89  1  0  0  0  0
 83 90  1  0  0  0  0
 84 90  1  0  0  0  0
 89 90  1  0  0  0  0
 83 91  1  0  0  0  0
 91 92  2  0  0  0  0
 92 93  1  0  0  0  0
 82 94  1  0  0  0  0
 86 94  1  0  0  0  0
 93 94  2  0  0  0  0
 86 95  2  0  0  0  0
 91 95  1  0  0  0  0
 84 96  1  0  0  0  0
 83 97  1  0  0  0  0
 87 98  1  0  0  0  0
 90 99  1  0  0  0  0
 92100  1  0  0  0  0
 93101  1  0  0  0  0
 95102  1  0  0  0  0
 85103  1  0  0  0  0
 85104  1  0  0  0  0
 88105  1  0  0  0  0
 88106  1  0  0  0  0
 89107  1  0  0  0  0
 89108  1  0  0  0  0
110112  1  0  0  0  0
111114  1  0  0  0  0
112114  1  0  0  0  0
114115  1  0  0  0  0
115116  1  0  0  0  0
110117  1  0  0  0  0
111117  1  0  0  0  0
116117  1  0  0  0  0
110118  1  0  0  0  0
118119  2  0  0  0  0
119120  1  0  0  0  0
109121  1  0  0  0  0
113121  1  0  0  0  0
120121  2  0  0  0  0
113122  2  0  0  0  0
118122  1  0  0  0  0
111123  1  0  0  0  0
110124  1  0  0  0  0
114125  1  0  0  0  0
117126  1  0  0  0  0
119127  1  0  0  0  0
120128  1  0  0  0  0
122129  1  0  0  0  0
112130  1  0  0  0  0
112131  1  0  0  0  0
115132  1  0  0  0  0
115133  1  0  0  0  0
116134  1  0  0  0  0
116135  1  0  0  0  0
M  END
$$$$
