8UTB
  PyMOL3.1          3D                             0

 32 33  0  0  0  0  0  0  0  0999 V2000
  126.3630  125.0590  138.6290 N   0  0  0  0  0  0  0  0  0  0  0  0
  126.4980  125.5260  142.8040 C   0  0  0  0  0  0  0  0  0  0  0  0
  124.4700  123.8040  138.2760 O   0  0  0  0  0  0  0  0  0  0  0  0
  121.2340  123.3930  134.2130 Cl  0  0  0  0  0  0  0  0  0  0  0  0
  129.0560  125.4690  139.7590 Cl  0  0  0  0  0  0  0  0  0  0  0  0
  127.6560  125.5690  142.0520 C   0  0  0  0  0  0  0  0  0  0  0  0
  125.7190  124.5690  136.5070 N   0  0  0  0  0  0  0  0  0  0  0  0
  127.0230  124.1030  134.2450 O   0  0  0  0  0  0  0  0  0  0  0  0
  127.5920  125.3880  140.6850 C   0  0  0  0  0  0  0  0  0  0  0  0
  126.3780  125.1500  140.0410 C   0  0  0  0  0  0  0  0  0  0  0  0
  125.2170  125.0960  140.8150 C   0  0  0  0  0  0  0  0  0  0  0  0
  125.2710  125.3000  142.1930 C   0  0  0  0  0  0  0  0  0  0  0  0
  124.0110  125.3040  143.0020 C   0  0  0  0  0  0  0  0  0  0  0  0
  125.4330  124.4310  137.8400 C   0  0  0  0  0  0  0  0  0  0  0  0
  124.9800  124.0560  135.4150 C   0  0  0  0  0  0  0  0  0  0  0  0
  125.7220  123.7170  134.2780 C   0  0  0  0  0  0  0  0  0  0  0  0
  125.0640  123.3050  133.1260 C   0  0  0  0  0  0  0  0  0  0  0  0
  123.6850  123.2140  133.1020 C   0  0  0  0  0  0  0  0  0  0  0  0
  122.9690  123.5330  134.2360 C   0  0  0  0  0  0  0  0  0  0  0  0
  123.5900  123.9550  135.3950 C   0  0  0  0  0  0  0  0  0  0  0  0
  124.1060  124.5730  144.1100 F   0  0  0  0  0  0  0  0  0  0  0  0
  123.6670  126.5250  143.3970 F   0  0  0  0  0  0  0  0  0  0  0  0
  122.9630  124.8320  142.3260 F   0  0  0  0  0  0  0  0  0  0  0  0
  126.5640  125.6730  143.8810 H   0  0  0  0  0  0  0  0  0  0  0  0
  128.6220  125.7450  142.5260 H   0  0  0  0  0  0  0  0  0  0  0  0
  124.2580  124.8920  140.3400 H   0  0  0  0  0  0  0  0  0  0  0  0
  127.1540  125.5310  138.2010 H   0  0  0  0  0  0  0  0  0  0  0  0
  126.5380  125.0870  136.2110 H   0  0  0  0  0  0  0  0  0  0  0  0
  125.6280  123.0500  132.2300 H   0  0  0  0  0  0  0  0  0  0  0  0
  123.1650  122.8960  132.1990 H   0  0  0  0  0  0  0  0  0  0  0  0
  122.9960  124.2010  136.2730 H   0  0  0  0  0  0  0  0  0  0  0  0
  127.0470  125.0500  133.9470 H   0  0  0  0  0  0  0  0  0  0  0  0
  2  6  2  0  0  0  0
  5  9  1  0  0  0  0
  6  9  1  0  0  0  0
  1 10  1  0  0  0  0
  9 10  2  0  0  0  0
 10 11  1  0  0  0  0
  2 12  1  0  0  0  0
 11 12  2  0  0  0  0
 12 13  1  0  0  0  0
  1 14  1  0  0  0  0
  3 14  2  0  0  0  0
  7 14  1  0  0  0  0
  7 15  1  0  0  0  0
  8 16  1  0  0  0  0
 15 16  2  0  0  0  0
 16 17  1  0  0  0  0
 17 18  2  0  0  0  0
  4 19  1  0  0  0  0
 18 19  1  0  0  0  0
 15 20  1  0  0  0  0
 19 20  2  0  0  0  0
 13 21  1  0  0  0  0
 13 22  1  0  0  0  0
 13 23  1  0  0  0  0
  2 24  1  0  0  0  0
  6 25  1  0  0  0  0
 11 26  1  0  0  0  0
  1 27  1  0  0  0  0
  7 28  1  0  0  0  0
 17 29  1  0  0  0  0
 18 30  1  0  0  0  0
 20 31  1  0  0  0  0
  8 32  1  0  0  0  0
M  END
$$$$
