8UTB
  PyMOL3.1          3D                             0

 32 33  0  0  0  0  0  0  0  0999 V2000
  122.0620  145.2620  138.6270 N   0  0  0  0  0  0  0  0  0  0  0  0
  122.5480  145.2790  142.8020 C   0  0  0  0  0  0  0  0  0  0  0  0
  120.2830  146.6740  138.2740 O   0  0  0  0  0  0  0  0  0  0  0  0
  118.8910  149.6240  134.2110 Cl  0  0  0  0  0  0  0  0  0  0  0  0
  123.2850  142.8280  139.7580 Cl  0  0  0  0  0  0  0  0  0  0  0  0
  122.9470  144.1900  142.0500 C   0  0  0  0  0  0  0  0  0  0  0  0
  121.3970  145.7230  136.5050 N   0  0  0  0  0  0  0  0  0  0  0  0
  121.3570  144.3390  134.2440 O   0  0  0  0  0  0  0  0  0  0  0  0
  122.7550  144.1950  140.6830 C   0  0  0  0  0  0  0  0  0  0  0  0
  122.1530  145.2760  140.0390 C   0  0  0  0  0  0  0  0  0  0  0  0
  121.7420  146.3640  140.8130 C   0  0  0  0  0  0  0  0  0  0  0  0
  121.9540  146.3760  142.1910 C   0  0  0  0  0  0  0  0  0  0  0  0
  121.5680  147.5760  143.0000 C   0  0  0  0  0  0  0  0  0  0  0  0
  121.1770  145.9530  137.8380 C   0  0  0  0  0  0  0  0  0  0  0  0
  120.6810  146.2670  135.4130 C   0  0  0  0  0  0  0  0  0  0  0  0
  120.5870  145.4560  134.2760 C   0  0  0  0  0  0  0  0  0  0  0  0
  119.9930  145.9540  133.1240 C   0  0  0  0  0  0  0  0  0  0  0  0
  119.4790  147.2380  133.1000 C   0  0  0  0  0  0  0  0  0  0  0  0
  119.5610  148.0170  134.2340 C   0  0  0  0  0  0  0  0  0  0  0  0
  120.1550  147.5570  135.3930 C   0  0  0  0  0  0  0  0  0  0  0  0
  120.9020  147.2590  144.1080 F   0  0  0  0  0  0  0  0  0  0  0  0
  122.6220  148.2800  143.3950 F   0  0  0  0  0  0  0  0  0  0  0  0
  120.7950  148.4260  142.3240 F   0  0  0  0  0  0  0  0  0  0  0  0
  122.7080  145.2620  143.8790 H   0  0  0  0  0  0  0  0  0  0  0  0
  123.4130  143.3270  142.5250 H   0  0  0  0  0  0  0  0  0  0  0  0
  121.2520  147.2130  140.3380 H   0  0  0  0  0  0  0  0  0  0  0  0
  122.7550  144.6560  138.1990 H   0  0  0  0  0  0  0  0  0  0  0  0
  122.1430  145.1040  136.2090 H   0  0  0  0  0  0  0  0  0  0  0  0
  119.9240  145.3400  132.2290 H   0  0  0  0  0  0  0  0  0  0  0  0
  119.0160  147.6340  132.1970 H   0  0  0  0  0  0  0  0  0  0  0  0
  120.2050  148.1990  136.2710 H   0  0  0  0  0  0  0  0  0  0  0  0
  122.2640  144.6090  133.9450 H   0  0  0  0  0  0  0  0  0  0  0  0
  2  6  2  0  0  0  0
  5  9  1  0  0  0  0
  6  9  1  0  0  0  0
  1 10  1  0  0  0  0
  9 10  2  0  0  0  0
 10 11  1  0  0  0  0
  2 12  1  0  0  0  0
 11 12  2  0  0  0  0
 12 13  1  0  0  0  0
  1 14  1  0  0  0  0
  3 14  2  0  0  0  0
  7 14  1  0  0  0  0
  7 15  1  0  0  0  0
  8 16  1  0  0  0  0
 15 16  2  0  0  0  0
 16 17  1  0  0  0  0
 17 18  2  0  0  0  0
  4 19  1  0  0  0  0
 18 19  1  0  0  0  0
 15 20  1  0  0  0  0
 19 20  2  0  0  0  0
 13 21  1  0  0  0  0
 13 22  1  0  0  0  0
 13 23  1  0  0  0  0
  2 24  1  0  0  0  0
  6 25  1  0  0  0  0
 11 26  1  0  0  0  0
  1 27  1  0  0  0  0
  7 28  1  0  0  0  0
 17 29  1  0  0  0  0
 18 30  1  0  0  0  0
 20 31  1  0  0  0  0
  8 32  1  0  0  0  0
M  END
$$$$
