8UTB
  PyMOL3.1          3D                             0

 32 33  0  0  0  0  0  0  0  0999 V2000
  139.9390  155.5730  138.6320 N   0  0  0  0  0  0  0  0  0  0  0  0
  140.1030  155.1160  142.8070 C   0  0  0  0  0  0  0  0  0  0  0  0
  140.7340  157.7010  138.2790 O   0  0  0  0  0  0  0  0  0  0  0  0
  143.1120  159.9340  134.2160 Cl  0  0  0  0  0  0  0  0  0  0  0  0
  138.0000  153.6600  139.7620 Cl  0  0  0  0  0  0  0  0  0  0  0  0
  139.1910  154.4010  142.0550 C   0  0  0  0  0  0  0  0  0  0  0  0
  140.1730  156.3480  136.5100 N   0  0  0  0  0  0  0  0  0  0  0  0
  138.8440  155.9590  134.2480 O   0  0  0  0  0  0  0  0  0  0  0  0
  139.1370  154.5850  140.6880 C   0  0  0  0  0  0  0  0  0  0  0  0
  139.9800  155.4910  140.0440 C   0  0  0  0  0  0  0  0  0  0  0  0
  140.8880  156.2170  140.8180 C   0  0  0  0  0  0  0  0  0  0  0  0
  140.9640  156.0200  142.1960 C   0  0  0  0  0  0  0  0  0  0  0  0
  141.9860  156.7570  143.0050 C   0  0  0  0  0  0  0  0  0  0  0  0
  140.3230  156.6280  137.8430 C   0  0  0  0  0  0  0  0  0  0  0  0
  140.4700  157.1970  135.4180 C   0  0  0  0  0  0  0  0  0  0  0  0
  139.6700  157.0360  134.2810 C   0  0  0  0  0  0  0  0  0  0  0  0
  139.9610  157.7550  133.1290 C   0  0  0  0  0  0  0  0  0  0  0  0
  141.0240  158.6390  133.1050 C   0  0  0  0  0  0  0  0  0  0  0  0
  141.7900  158.8010  134.2390 C   0  0  0  0  0  0  0  0  0  0  0  0
  141.5350  158.0950  135.3980 C   0  0  0  0  0  0  0  0  0  0  0  0
  141.4790  157.2930  144.1130 F   0  0  0  0  0  0  0  0  0  0  0  0
  142.9810  155.9710  143.4010 F   0  0  0  0  0  0  0  0  0  0  0  0
  142.5570  157.7540  142.3290 F   0  0  0  0  0  0  0  0  0  0  0  0
  140.1360  154.9590  143.8840 H   0  0  0  0  0  0  0  0  0  0  0  0
  138.5130  153.6920  142.5290 H   0  0  0  0  0  0  0  0  0  0  0  0
  141.5440  156.9450  140.3430 H   0  0  0  0  0  0  0  0  0  0  0  0
  139.5760  154.7270  138.2040 H   0  0  0  0  0  0  0  0  0  0  0  0
  139.8140  155.4470  136.2140 H   0  0  0  0  0  0  0  0  0  0  0  0
  139.3550  157.6310  132.2330 H   0  0  0  0  0  0  0  0  0  0  0  0
  141.2580  159.2020  132.2020 H   0  0  0  0  0  0  0  0  0  0  0  0
  142.1610  158.2450  136.2760 H   0  0  0  0  0  0  0  0  0  0  0  0
  139.3810  155.1790  133.9500 H   0  0  0  0  0  0  0  0  0  0  0  0
  2  6  2  0  0  0  0
  5  9  1  0  0  0  0
  6  9  1  0  0  0  0
  1 10  1  0  0  0  0
  9 10  2  0  0  0  0
 10 11  1  0  0  0  0
  2 12  1  0  0  0  0
 11 12  2  0  0  0  0
 12 13  1  0  0  0  0
  1 14  1  0  0  0  0
  3 14  2  0  0  0  0
  7 14  1  0  0  0  0
  7 15  1  0  0  0  0
  8 16  1  0  0  0  0
 15 16  2  0  0  0  0
 16 17  1  0  0  0  0
 17 18  2  0  0  0  0
  4 19  1  0  0  0  0
 18 19  1  0  0  0  0
 15 20  1  0  0  0  0
 19 20  2  0  0  0  0
 13 21  1  0  0  0  0
 13 22  1  0  0  0  0
 13 23  1  0  0  0  0
  2 24  1  0  0  0  0
  6 25  1  0  0  0  0
 11 26  1  0  0  0  0
  1 27  1  0  0  0  0
  7 28  1  0  0  0  0
 17 29  1  0  0  0  0
 18 30  1  0  0  0  0
 20 31  1  0  0  0  0
  8 32  1  0  0  0  0
M  END
$$$$
