8UTB
  PyMOL3.1          3D                             0

 32 33  0  0  0  0  0  0  0  0999 V2000
  146.8960  122.8980  138.6280 N   0  0  0  0  0  0  0  0  0  0  0  0
  146.4940  123.1710  142.8030 C   0  0  0  0  0  0  0  0  0  0  0  0
  147.5050  120.7090  138.2750 O   0  0  0  0  0  0  0  0  0  0  0  0
  146.8970  117.5050  134.2120 Cl  0  0  0  0  0  0  0  0  0  0  0  0
  147.3370  125.5860  139.7580 Cl  0  0  0  0  0  0  0  0  0  0  0  0
  146.8100  124.2850  142.0510 C   0  0  0  0  0  0  0  0  0  0  0  0
  147.1630  122.1340  136.5060 N   0  0  0  0  0  0  0  0  0  0  0  0
  148.0090  123.2300  134.2440 O   0  0  0  0  0  0  0  0  0  0  0  0
  146.9620  124.1690  140.6840 C   0  0  0  0  0  0  0  0  0  0  0  0
  146.8140  122.9400  140.0400 C   0  0  0  0  0  0  0  0  0  0  0  0
  146.5070  121.8190  140.8140 C   0  0  0  0  0  0  0  0  0  0  0  0
  146.3300  121.9330  142.1920 C   0  0  0  0  0  0  0  0  0  0  0  0
  145.9370  120.7360  143.0010 C   0  0  0  0  0  0  0  0  0  0  0  0
  147.2060  121.8190  137.8390 C   0  0  0  0  0  0  0  0  0  0  0  0
  147.4220  121.2720  135.4140 C   0  0  0  0  0  0  0  0  0  0  0  0
  147.9750  121.8730  134.2770 C   0  0  0  0  0  0  0  0  0  0  0  0
  148.1630  121.1210  133.1250 C   0  0  0  0  0  0  0  0  0  0  0  0
  147.8230  119.7810  133.1010 C   0  0  0  0  0  0  0  0  0  0  0  0
  147.2990  119.1990  134.2350 C   0  0  0  0  0  0  0  0  0  0  0  0
  147.0900  119.9200  135.3940 C   0  0  0  0  0  0  0  0  0  0  0  0
  146.6620  120.6010  144.1090 F   0  0  0  0  0  0  0  0  0  0  0  0
  144.6700  120.7860  143.3970 F   0  0  0  0  0  0  0  0  0  0  0  0
  146.0620  119.5940  142.3250 F   0  0  0  0  0  0  0  0  0  0  0  0
  146.3740  123.2780  143.8800 H   0  0  0  0  0  0  0  0  0  0  0  0
  146.9410  125.2580  142.5250 H   0  0  0  0  0  0  0  0  0  0  0  0
  146.4050  120.8440  140.3390 H   0  0  0  0  0  0  0  0  0  0  0  0
  146.6910  123.7950  138.2000 H   0  0  0  0  0  0  0  0  0  0  0  0
  146.9230  123.0730  136.2100 H   0  0  0  0  0  0  0  0  0  0  0  0
  148.5800  121.5780  132.2290 H   0  0  0  0  0  0  0  0  0  0  0  0
  147.9660  119.1880  132.1980 H   0  0  0  0  0  0  0  0  0  0  0  0
  146.6720  119.4300  136.2720 H   0  0  0  0  0  0  0  0  0  0  0  0
  147.1150  123.5450  133.9460 H   0  0  0  0  0  0  0  0  0  0  0  0
  2  6  2  0  0  0  0
  5  9  1  0  0  0  0
  6  9  1  0  0  0  0
  1 10  1  0  0  0  0
  9 10  2  0  0  0  0
 10 11  1  0  0  0  0
  2 12  1  0  0  0  0
 11 12  2  0  0  0  0
 12 13  1  0  0  0  0
  1 14  1  0  0  0  0
  3 14  2  0  0  0  0
  7 14  1  0  0  0  0
  7 15  1  0  0  0  0
  8 16  1  0  0  0  0
 15 16  2  0  0  0  0
 16 17  1  0  0  0  0
 17 18  2  0  0  0  0
  4 19  1  0  0  0  0
 18 19  1  0  0  0  0
 15 20  1  0  0  0  0
 19 20  2  0  0  0  0
 13 21  1  0  0  0  0
 13 22  1  0  0  0  0
 13 23  1  0  0  0  0
  2 24  1  0  0  0  0
  6 25  1  0  0  0  0
 11 26  1  0  0  0  0
  1 27  1  0  0  0  0
  7 28  1  0  0  0  0
 17 29  1  0  0  0  0
 18 30  1  0  0  0  0
 20 31  1  0  0  0  0
  8 32  1  0  0  0  0
M  END
$$$$
