8UTB
  PyMOL3.1          3D                             0

 32 33  0  0  0  0  0  0  0  0999 V2000
  155.2930  141.7660  138.6250 N   0  0  0  0  0  0  0  0  0  0  0  0
  154.9100  141.4690  142.8000 C   0  0  0  0  0  0  0  0  0  0  0  0
  157.5620  141.6680  138.2710 O   0  0  0  0  0  0  0  0  0  0  0  0
  160.4200  140.0970  134.2080 Cl  0  0  0  0  0  0  0  0  0  0  0  0
  152.8740  143.0190  139.7560 Cl  0  0  0  0  0  0  0  0  0  0  0  0
  153.9480  142.1150  142.0480 C   0  0  0  0  0  0  0  0  0  0  0  0
  156.1020  141.7840  136.5030 N   0  0  0  0  0  0  0  0  0  0  0  0
  155.3210  142.9270  134.2410 O   0  0  0  0  0  0  0  0  0  0  0  0
  154.1060  142.2240  140.6810 C   0  0  0  0  0  0  0  0  0  0  0  0
  155.2280  141.7020  140.0370 C   0  0  0  0  0  0  0  0  0  0  0  0
  156.1990  141.0630  140.8110 C   0  0  0  0  0  0  0  0  0  0  0  0
  156.0350  140.9290  142.1890 C   0  0  0  0  0  0  0  0  0  0  0  0
  157.0520  140.1850  142.9970 C   0  0  0  0  0  0  0  0  0  0  0  0
  156.4150  141.7270  137.8360 C   0  0  0  0  0  0  0  0  0  0  0  0
  157.0010  141.7640  135.4110 C   0  0  0  0  0  0  0  0  0  0  0  0
  156.6000  142.4750  134.2740 C   0  0  0  0  0  0  0  0  0  0  0  0
  157.3740  142.4200  133.1220 C   0  0  0  0  0  0  0  0  0  0  0  0
  158.5430  141.6830  133.0970 C   0  0  0  0  0  0  0  0  0  0  0  0
  158.9340  141.0040  134.2310 C   0  0  0  0  0  0  0  0  0  0  0  0
  158.1840  141.0280  135.3900 C   0  0  0  0  0  0  0  0  0  0  0  0
  157.4060  140.8330  144.1050 F   0  0  0  0  0  0  0  0  0  0  0  0
  156.6130  138.9960  143.3930 F   0  0  0  0  0  0  0  0  0  0  0  0
  158.1770  139.9500  142.3210 F   0  0  0  0  0  0  0  0  0  0  0  0
  154.7710  141.3890  143.8770 H   0  0  0  0  0  0  0  0  0  0  0  0
  153.0640  142.5410  142.5220 H   0  0  0  0  0  0  0  0  0  0  0  0
  157.0940  140.6640  140.3350 H   0  0  0  0  0  0  0  0  0  0  0  0
  154.3760  141.8500  138.1970 H   0  0  0  0  0  0  0  0  0  0  0  0
  155.1340  141.8460  136.2070 H   0  0  0  0  0  0  0  0  0  0  0  0
  157.0680  142.9580  132.2260 H   0  0  0  0  0  0  0  0  0  0  0  0
  159.1510  141.6340  132.1940 H   0  0  0  0  0  0  0  0  0  0  0  0
  158.5200  140.4790  136.2680 H   0  0  0  0  0  0  0  0  0  0  0  0
  154.7450  142.1760  133.9430 H   0  0  0  0  0  0  0  0  0  0  0  0
  2  6  2  0  0  0  0
  5  9  1  0  0  0  0
  6  9  1  0  0  0  0
  1 10  1  0  0  0  0
  9 10  2  0  0  0  0
 10 11  1  0  0  0  0
  2 12  1  0  0  0  0
 11 12  2  0  0  0  0
 12 13  1  0  0  0  0
  1 14  1  0  0  0  0
  3 14  2  0  0  0  0
  7 14  1  0  0  0  0
  7 15  1  0  0  0  0
  8 16  1  0  0  0  0
 15 16  2  0  0  0  0
 16 17  1  0  0  0  0
 17 18  2  0  0  0  0
  4 19  1  0  0  0  0
 18 19  1  0  0  0  0
 15 20  1  0  0  0  0
 19 20  2  0  0  0  0
 13 21  1  0  0  0  0
 13 22  1  0  0  0  0
 13 23  1  0  0  0  0
  2 24  1  0  0  0  0
  6 25  1  0  0  0  0
 11 26  1  0  0  0  0
  1 27  1  0  0  0  0
  7 28  1  0  0  0  0
 17 29  1  0  0  0  0
 18 30  1  0  0  0  0
 20 31  1  0  0  0  0
  8 32  1  0  0  0  0
M  END
$$$$
