8IO3
  PyMOL3.1          3D                             0

 35 38  0  0  0  0  0  0  0  0999 V2000
  128.1890   89.1220   94.6010 C   0  0  0  0  0  0  0  0  0  0  0  0
  127.3340   89.8690   93.7100 C   0  0  0  0  0  0  0  0  0  0  0  0
  129.0090   88.1020   93.7640 C   0  0  0  0  0  0  0  0  0  0  0  0
  126.4200   89.0420   92.9600 C   0  0  0  0  0  0  0  0  0  0  0  0
  129.1310   89.9800   95.6190 C   0  0  0  0  0  0  0  0  0  0  0  0
  127.2070   87.9960   92.1530 C   0  0  0  0  0  0  0  0  0  0  0  0
  128.7630   86.4790   92.3210 C   0  0  0  0  0  0  0  0  0  0  0  0
  130.0600   91.8370   95.0440 C   0  0  0  0  0  0  0  0  0  0  0  0
  127.9300   85.2590   91.9110 C   0  0  0  0  0  0  0  0  0  0  0  0
  128.1790   92.0730   96.1360 C   0  0  0  0  0  0  0  0  0  0  0  0
  131.1460   92.1690   95.9880 C   0  0  0  0  0  0  0  0  0  0  0  0
  127.9970   93.2750   96.1630 C   0  0  0  0  0  0  0  0  0  0  0  0
  130.6850   93.5610   97.1080 C   0  0  0  0  0  0  0  0  0  0  0  0
  128.9640   94.0410   97.0970 C   0  0  0  0  0  0  0  0  0  0  0  0
  128.4150   84.6950   90.5780 C   0  0  0  0  0  0  0  0  0  0  0  0
  131.5280   94.1910   97.8850 C   0  0  0  0  0  0  0  0  0  0  0  0
  128.5320   95.0160   97.8530 C   0  0  0  0  0  0  0  0  0  0  0  0
  129.5310   83.8780   90.5600 C   0  0  0  0  0  0  0  0  0  0  0  0
  131.0310   95.3130   98.7600 C   0  0  0  0  0  0  0  0  0  0  0  0
  128.1220   87.2650   92.9900 N   0  0  0  0  0  0  0  0  0  0  0  0
  129.1340   91.4590   95.5600 N   0  0  0  0  0  0  0  0  0  0  0  0
  127.3050   91.4600   96.6490 O   0  0  0  0  0  0  0  0  0  0  0  0
  131.9150   95.9970   99.6040 O   0  0  0  0  0  0  0  0  0  0  0  0
  129.0350   96.7800   99.5580 O   0  0  0  0  0  0  0  0  0  0  0  0
  131.1210   82.5270   89.3120 O   0  0  0  0  0  0  0  0  0  0  0  0
  129.7850   83.1440   86.9630 O   0  0  0  0  0  0  0  0  0  0  0  0
  127.7500   85.0020   89.4020 C   0  0  0  0  0  0  0  0  0  0  0  0
  129.4850   95.7330   98.7400 C   0  0  0  0  0  0  0  0  0  0  0  0
  129.9940   83.3610   89.3570 C   0  0  0  0  0  0  0  0  0  0  0  0
  128.2050   84.4850   88.1980 C   0  0  0  0  0  0  0  0  0  0  0  0
  129.3250   83.6650   88.1800 C   0  0  0  0  0  0  0  0  0  0  0  0
  132.3020   97.2540   99.1340 C   0  0  0  0  0  0  0  0  0  0  0  0
  127.6490   96.8560   99.7590 C   0  0  0  0  0  0  0  0  0  0  0  0
  132.0340   82.6410   90.3710 C   0  0  0  0  0  0  0  0  0  0  0  0
  128.8620   82.3130   86.3150 C   0  0  0  0  0  0  0  0  0  0  0  0
  1  2  1  0  0  0  0
  1  3  1  0  0  0  0
  2  4  1  0  0  0  0
  1  5  1  0  0  0  0
  4  6  1  0  0  0  0
  7  9  1  0  0  0  0
  8 11  1  0  0  0  0
 10 12  1  0  0  0  0
 11 13  1  0  0  0  0
 12 14  1  0  0  0  0
 13 14  1  0  0  0  0
  9 15  1  0  0  0  0
 13 16  2  0  0  0  0
 14 17  2  0  0  0  0
 15 18  2  0  0  0  0
 16 19  1  0  0  0  0
  3 20  1  0  0  0  0
  6 20  1  0  0  0  0
  7 20  1  0  0  0  0
  5 21  1  0  0  0  0
  8 21  1  0  0  0  0
 10 21  1  0  0  0  0
 10 22  2  0  0  0  0
 19 23  1  0  0  0  0
 15 27  1  0  0  0  0
 17 28  1  0  0  0  0
 19 28  2  0  0  0  0
 24 28  1  0  0  0  0
 18 29  1  0  0  0  0
 25 29  1  0  0  0  0
 27 30  2  0  0  0  0
 26 31  1  0  0  0  0
 29 31  2  0  0  0  0
 30 31  1  0  0  0  0
 23 32  1  0  0  0  0
 24 33  1  0  0  0  0
 25 34  1  0  0  0  0
 26 35  1  0  0  0  0
M  END
$$$$
