8IO3
  PyMOL3.1          3D                             0

140152  0  0  0  0  0  0  0  0999 V2000
  128.1890   89.1220   94.6010 C   0  0  0  0  0  0  0  0  0  0  0  0
  127.3340   89.8690   93.7100 C   0  0  0  0  0  0  0  0  0  0  0  0
  129.0090   88.1020   93.7640 C   0  0  0  0  0  0  0  0  0  0  0  0
  126.4200   89.0420   92.9600 C   0  0  0  0  0  0  0  0  0  0  0  0
  129.1310   89.9800   95.6190 C   0  0  0  0  0  0  0  0  0  0  0  0
  127.2070   87.9960   92.1530 C   0  0  0  0  0  0  0  0  0  0  0  0
  128.7630   86.4790   92.3210 C   0  0  0  0  0  0  0  0  0  0  0  0
  130.0600   91.8370   95.0440 C   0  0  0  0  0  0  0  0  0  0  0  0
  127.9300   85.2590   91.9110 C   0  0  0  0  0  0  0  0  0  0  0  0
  128.1790   92.0730   96.1360 C   0  0  0  0  0  0  0  0  0  0  0  0
  131.1460   92.1690   95.9880 C   0  0  0  0  0  0  0  0  0  0  0  0
  127.9970   93.2750   96.1630 C   0  0  0  0  0  0  0  0  0  0  0  0
  130.6850   93.5610   97.1080 C   0  0  0  0  0  0  0  0  0  0  0  0
  128.9640   94.0410   97.0970 C   0  0  0  0  0  0  0  0  0  0  0  0
  128.4150   84.6950   90.5780 C   0  0  0  0  0  0  0  0  0  0  0  0
  131.5280   94.1910   97.8850 C   0  0  0  0  0  0  0  0  0  0  0  0
  128.5320   95.0160   97.8530 C   0  0  0  0  0  0  0  0  0  0  0  0
  129.5310   83.8780   90.5600 C   0  0  0  0  0  0  0  0  0  0  0  0
  131.0310   95.3130   98.7600 C   0  0  0  0  0  0  0  0  0  0  0  0
  128.1220   87.2650   92.9900 N   0  0  0  0  0  0  0  0  0  0  0  0
  129.1340   91.4590   95.5600 N   0  0  0  0  0  0  0  0  0  0  0  0
  127.3050   91.4600   96.6490 O   0  0  0  0  0  0  0  0  0  0  0  0
  131.9150   95.9970   99.6040 O   0  0  0  0  0  0  0  0  0  0  0  0
  129.0350   96.7800   99.5580 O   0  0  0  0  0  0  0  0  0  0  0  0
  131.1210   82.5270   89.3120 O   0  0  0  0  0  0  0  0  0  0  0  0
  129.7850   83.1440   86.9630 O   0  0  0  0  0  0  0  0  0  0  0  0
  127.7500   85.0020   89.4020 C   0  0  0  0  0  0  0  0  0  0  0  0
  129.4850   95.7330   98.7400 C   0  0  0  0  0  0  0  0  0  0  0  0
  129.9940   83.3610   89.3570 C   0  0  0  0  0  0  0  0  0  0  0  0
  128.2050   84.4850   88.1980 C   0  0  0  0  0  0  0  0  0  0  0  0
  129.3250   83.6650   88.1800 C   0  0  0  0  0  0  0  0  0  0  0  0
  132.3020   97.2540   99.1340 C   0  0  0  0  0  0  0  0  0  0  0  0
  127.6490   96.8560   99.7590 C   0  0  0  0  0  0  0  0  0  0  0  0
  132.0340   82.6410   90.3710 C   0  0  0  0  0  0  0  0  0  0  0  0
  128.8620   82.3130   86.3150 C   0  0  0  0  0  0  0  0  0  0  0  0
  121.2780  128.1890   94.6010 C   0  0  0  0  0  0  0  0  0  0  0  0
  120.5310  127.3340   93.7100 C   0  0  0  0  0  0  0  0  0  0  0  0
  122.2980  129.0090   93.7640 C   0  0  0  0  0  0  0  0  0  0  0  0
  121.3580  126.4200   92.9600 C   0  0  0  0  0  0  0  0  0  0  0  0
  120.4200  129.1310   95.6190 C   0  0  0  0  0  0  0  0  0  0  0  0
  122.4030  127.2070   92.1530 C   0  0  0  0  0  0  0  0  0  0  0  0
  123.9210  128.7630   92.3210 C   0  0  0  0  0  0  0  0  0  0  0  0
  118.5630  130.0600   95.0440 C   0  0  0  0  0  0  0  0  0  0  0  0
  125.1410  127.9300   91.9110 C   0  0  0  0  0  0  0  0  0  0  0  0
  118.3270  128.1790   96.1360 C   0  0  0  0  0  0  0  0  0  0  0  0
  118.2310  131.1460   95.9880 C   0  0  0  0  0  0  0  0  0  0  0  0
  117.1250  127.9970   96.1630 C   0  0  0  0  0  0  0  0  0  0  0  0
  116.8390  130.6850   97.1080 C   0  0  0  0  0  0  0  0  0  0  0  0
  116.3590  128.9640   97.0970 C   0  0  0  0  0  0  0  0  0  0  0  0
  125.7050  128.4150   90.5780 C   0  0  0  0  0  0  0  0  0  0  0  0
  116.2090  131.5280   97.8850 C   0  0  0  0  0  0  0  0  0  0  0  0
  115.3840  128.5320   97.8530 C   0  0  0  0  0  0  0  0  0  0  0  0
  126.5220  129.5310   90.5600 C   0  0  0  0  0  0  0  0  0  0  0  0
  115.0870  131.0310   98.7600 C   0  0  0  0  0  0  0  0  0  0  0  0
  123.1350  128.1220   92.9900 N   0  0  0  0  0  0  0  0  0  0  0  0
  118.9410  129.1340   95.5600 N   0  0  0  0  0  0  0  0  0  0  0  0
  118.9400  127.3050   96.6490 O   0  0  0  0  0  0  0  0  0  0  0  0
  114.4030  131.9150   99.6040 O   0  0  0  0  0  0  0  0  0  0  0  0
  113.6200  129.0350   99.5580 O   0  0  0  0  0  0  0  0  0  0  0  0
  127.8730  131.1210   89.3120 O   0  0  0  0  0  0  0  0  0  0  0  0
  127.2560  129.7850   86.9630 O   0  0  0  0  0  0  0  0  0  0  0  0
  125.3980  127.7500   89.4020 C   0  0  0  0  0  0  0  0  0  0  0  0
  114.6670  129.4860   98.7400 C   0  0  0  0  0  0  0  0  0  0  0  0
  127.0390  129.9940   89.3570 C   0  0  0  0  0  0  0  0  0  0  0  0
  125.9150  128.2050   88.1980 C   0  0  0  0  0  0  0  0  0  0  0  0
  126.7350  129.3250   88.1800 C   0  0  0  0  0  0  0  0  0  0  0  0
  113.1460  132.3020   99.1340 C   0  0  0  0  0  0  0  0  0  0  0  0
  113.5440  127.6490   99.7590 C   0  0  0  0  0  0  0  0  0  0  0  0
  127.7590  132.0340   90.3710 C   0  0  0  0  0  0  0  0  0  0  0  0
  128.0870  128.8620   86.3150 C   0  0  0  0  0  0  0  0  0  0  0  0
   82.2110  121.2780   94.6010 C   0  0  0  0  0  0  0  0  0  0  0  0
   83.0660  120.5310   93.7100 C   0  0  0  0  0  0  0  0  0  0  0  0
   81.3910  122.2980   93.7640 C   0  0  0  0  0  0  0  0  0  0  0  0
   83.9800  121.3580   92.9600 C   0  0  0  0  0  0  0  0  0  0  0  0
   81.2690  120.4200   95.6190 C   0  0  0  0  0  0  0  0  0  0  0  0
   83.1930  122.4040   92.1530 C   0  0  0  0  0  0  0  0  0  0  0  0
   81.6370  123.9210   92.3210 C   0  0  0  0  0  0  0  0  0  0  0  0
   80.3400  118.5630   95.0440 C   0  0  0  0  0  0  0  0  0  0  0  0
   82.4700  125.1410   91.9110 C   0  0  0  0  0  0  0  0  0  0  0  0
   82.2210  118.3270   96.1360 C   0  0  0  0  0  0  0  0  0  0  0  0
   79.2540  118.2310   95.9880 C   0  0  0  0  0  0  0  0  0  0  0  0
   82.4030  117.1250   96.1630 C   0  0  0  0  0  0  0  0  0  0  0  0
   79.7150  116.8390   97.1080 C   0  0  0  0  0  0  0  0  0  0  0  0
   81.4360  116.3590   97.0970 C   0  0  0  0  0  0  0  0  0  0  0  0
   81.9850  125.7050   90.5780 C   0  0  0  0  0  0  0  0  0  0  0  0
   78.8720  116.2090   97.8850 C   0  0  0  0  0  0  0  0  0  0  0  0
   81.8680  115.3840   97.8530 C   0  0  0  0  0  0  0  0  0  0  0  0
   80.8690  126.5220   90.5600 C   0  0  0  0  0  0  0  0  0  0  0  0
   79.3690  115.0870   98.7600 C   0  0  0  0  0  0  0  0  0  0  0  0
   82.2780  123.1350   92.9900 N   0  0  0  0  0  0  0  0  0  0  0  0
   81.2660  118.9410   95.5600 N   0  0  0  0  0  0  0  0  0  0  0  0
   83.0950  118.9400   96.6490 O   0  0  0  0  0  0  0  0  0  0  0  0
   78.4850  114.4030   99.6040 O   0  0  0  0  0  0  0  0  0  0  0  0
   81.3650  113.6200   99.5580 O   0  0  0  0  0  0  0  0  0  0  0  0
   79.2790  127.8730   89.3120 O   0  0  0  0  0  0  0  0  0  0  0  0
   80.6150  127.2560   86.9630 O   0  0  0  0  0  0  0  0  0  0  0  0
   82.6500  125.3980   89.4020 C   0  0  0  0  0  0  0  0  0  0  0  0
   80.9150  114.6670   98.7400 C   0  0  0  0  0  0  0  0  0  0  0  0
   80.4060  127.0390   89.3570 C   0  0  0  0  0  0  0  0  0  0  0  0
   82.1950  125.9150   88.1980 C   0  0  0  0  0  0  0  0  0  0  0  0
   81.0750  126.7350   88.1800 C   0  0  0  0  0  0  0  0  0  0  0  0
   78.0980  113.1460   99.1340 C   0  0  0  0  0  0  0  0  0  0  0  0
   82.7510  113.5440   99.7590 C   0  0  0  0  0  0  0  0  0  0  0  0
   78.3660  127.7590   90.3710 C   0  0  0  0  0  0  0  0  0  0  0  0
   81.5380  128.0870   86.3150 C   0  0  0  0  0  0  0  0  0  0  0  0
   89.1190   82.2210   94.6060 C   0  0  0  0  0  0  0  0  0  0  0  0
   89.8670   83.0680   93.7090 C   0  0  0  0  0  0  0  0  0  0  0  0
   88.0950   81.4010   93.7740 C   0  0  0  0  0  0  0  0  0  0  0  0
   89.0400   83.9860   92.9630 C   0  0  0  0  0  0  0  0  0  0  0  0
   89.9750   81.2830   95.6280 C   0  0  0  0  0  0  0  0  0  0  0  0
   87.9880   83.2030   92.1610 C   0  0  0  0  0  0  0  0  0  0  0  0
   86.4730   81.6450   92.3290 C   0  0  0  0  0  0  0  0  0  0  0  0
   91.8240   80.3390   95.0560 C   0  0  0  0  0  0  0  0  0  0  0  0
   85.2530   82.4760   91.9160 C   0  0  0  0  0  0  0  0  0  0  0  0
   92.0760   82.2280   96.1320 C   0  0  0  0  0  0  0  0  0  0  0  0
   92.1530   79.2600   96.0100 C   0  0  0  0  0  0  0  0  0  0  0  0
   93.2780   82.4030   96.1530 C   0  0  0  0  0  0  0  0  0  0  0  0
   93.5520   79.7230   97.1200 C   0  0  0  0  0  0  0  0  0  0  0  0
   94.0420   81.4410   97.0920 C   0  0  0  0  0  0  0  0  0  0  0  0
   84.6920   81.9880   90.5830 C   0  0  0  0  0  0  0  0  0  0  0  0
   94.1800   78.8820   97.9020 C   0  0  0  0  0  0  0  0  0  0  0  0
   95.0230   81.8740   97.8400 C   0  0  0  0  0  0  0  0  0  0  0  0
   83.8760   80.8710   90.5630 C   0  0  0  0  0  0  0  0  0  0  0  0
   95.3090   79.3800   98.7680 C   0  0  0  0  0  0  0  0  0  0  0  0
   87.2580   82.2870   92.9990 N   0  0  0  0  0  0  0  0  0  0  0  0
   91.4540   81.2720   95.5650 N   0  0  0  0  0  0  0  0  0  0  0  0
   91.4690   83.1100   96.6390 O   0  0  0  0  0  0  0  0  0  0  0  0
   95.9920   78.5000   99.6160 O   0  0  0  0  0  0  0  0  0  0  0  0
   96.7900   81.3770   99.5410 O   0  0  0  0  0  0  0  0  0  0  0  0
   82.5290   79.2790   89.3150 O   0  0  0  0  0  0  0  0  0  0  0  0
   83.1500   80.6130   86.9650 O   0  0  0  0  0  0  0  0  0  0  0  0
   85.0020   82.6520   89.4060 C   0  0  0  0  0  0  0  0  0  0  0  0
   95.7380   80.9230   98.7330 C   0  0  0  0  0  0  0  0  0  0  0  0
   83.3620   80.4070   89.3600 C   0  0  0  0  0  0  0  0  0  0  0  0
   84.4880   82.1950   88.2010 C   0  0  0  0  0  0  0  0  0  0  0  0
   83.6690   81.0750   88.1830 C   0  0  0  0  0  0  0  0  0  0  0  0
   97.2440   78.1030   99.1440 C   0  0  0  0  0  0  0  0  0  0  0  0
   96.8200   82.7570   99.7920 C   0  0  0  0  0  0  0  0  0  0  0  0
   82.6450   78.3660   90.3740 C   0  0  0  0  0  0  0  0  0  0  0  0
   82.3170   81.5330   86.3170 C   0  0  0  0  0  0  0  0  0  0  0  0
  1  2  1  0  0  0  0
  1  3  1  0  0  0  0
  2  4  1  0  0  0  0
  1  5  1  0  0  0  0
  4  6  1  0  0  0  0
  7  9  1  0  0  0  0
  8 11  1  0  0  0  0
 10 12  1  0  0  0  0
 11 13  1  0  0  0  0
 12 14  1  0  0  0  0
 13 14  1  0  0  0  0
  9 15  1  0  0  0  0
 13 16  2  0  0  0  0
 14 17  2  0  0  0  0
 15 18  2  0  0  0  0
 16 19  1  0  0  0  0
  3 20  1  0  0  0  0
  6 20  1  0  0  0  0
  7 20  1  0  0  0  0
  5 21  1  0  0  0  0
  8 21  1  0  0  0  0
 10 21  1  0  0  0  0
 10 22  2  0  0  0  0
 19 23  1  0  0  0  0
 15 27  1  0  0  0  0
 17 28  1  0  0  0  0
 19 28  2  0  0  0  0
 24 28  1  0  0  0  0
 18 29  1  0  0  0  0
 25 29  1  0  0  0  0
 27 30  2  0  0  0  0
 26 31  1  0  0  0  0
 29 31  2  0  0  0  0
 30 31  1  0  0  0  0
 23 32  1  0  0  0  0
 24 33  1  0  0  0  0
 25 34  1  0  0  0  0
 26 35  1  0  0  0  0
 36 37  1  0  0  0  0
 36 38  1  0  0  0  0
 37 39  1  0  0  0  0
 36 40  1  0  0  0  0
 39 41  1  0  0  0  0
 42 44  1  0  0  0  0
 43 46  1  0  0  0  0
 45 47  1  0  0  0  0
 46 48  1  0  0  0  0
 47 49  1  0  0  0  0
 48 49  1  0  0  0  0
 44 50  1  0  0  0  0
 48 51  2  0  0  0  0
 49 52  2  0  0  0  0
 50 53  2  0  0  0  0
 51 54  1  0  0  0  0
 38 55  1  0  0  0  0
 41 55  1  0  0  0  0
 42 55  1  0  0  0  0
 40 56  1  0  0  0  0
 43 56  1  0  0  0  0
 45 56  1  0  0  0  0
 45 57  2  0  0  0  0
 54 58  1  0  0  0  0
 50 62  1  0  0  0  0
 52 63  1  0  0  0  0
 54 63  2  0  0  0  0
 59 63  1  0  0  0  0
 53 64  1  0  0  0  0
 60 64  1  0  0  0  0
 62 65  2  0  0  0  0
 61 66  1  0  0  0  0
 64 66  2  0  0  0  0
 65 66  1  0  0  0  0
 58 67  1  0  0  0  0
 59 68  1  0  0  0  0
 60 69  1  0  0  0  0
 61 70  1  0  0  0  0
 71 72  1  0  0  0  0
 71 73  1  0  0  0  0
 72 74  1  0  0  0  0
 71 75  1  0  0  0  0
 74 76  1  0  0  0  0
 77 79  1  0  0  0  0
 78 81  1  0  0  0  0
 80 82  1  0  0  0  0
 81 83  1  0  0  0  0
 82 84  1  0  0  0  0
 83 84  1  0  0  0  0
 79 85  1  0  0  0  0
 83 86  2  0  0  0  0
 84 87  2  0  0  0  0
 85 88  2  0  0  0  0
 86 89  1  0  0  0  0
 73 90  1  0  0  0  0
 76 90  1  0  0  0  0
 77 90  1  0  0  0  0
 75 91  1  0  0  0  0
 78 91  1  0  0  0  0
 80 91  1  0  0  0  0
 80 92  2  0  0  0  0
 89 93  1  0  0  0  0
 85 97  1  0  0  0  0
 87 98  1  0  0  0  0
 89 98  2  0  0  0  0
 94 98  1  0  0  0  0
 88 99  1  0  0  0  0
 95 99  1  0  0  0  0
 97100  2  0  0  0  0
 96101  1  0  0  0  0
 99101  2  0  0  0  0
100101  1  0  0  0  0
 93102  1  0  0  0  0
 94103  1  0  0  0  0
 95104  1  0  0  0  0
 96105  1  0  0  0  0
106107  1  0  0  0  0
106108  1  0  0  0  0
107109  1  0  0  0  0
106110  1  0  0  0  0
109111  1  0  0  0  0
112114  1  0  0  0  0
113116  1  0  0  0  0
115117  1  0  0  0  0
116118  1  0  0  0  0
117119  1  0  0  0  0
118119  1  0  0  0  0
114120  1  0  0  0  0
118121  2  0  0  0  0
119122  2  0  0  0  0
120123  2  0  0  0  0
121124  1  0  0  0  0
108125  1  0  0  0  0
111125  1  0  0  0  0
112125  1  0  0  0  0
110126  1  0  0  0  0
113126  1  0  0  0  0
115126  1  0  0  0  0
115127  2  0  0  0  0
124128  1  0  0  0  0
120132  1  0  0  0  0
122133  1  0  0  0  0
124133  2  0  0  0  0
129133  1  0  0  0  0
123134  1  0  0  0  0
130134  1  0  0  0  0
132135  2  0  0  0  0
131136  1  0  0  0  0
134136  2  0  0  0  0
135136  1  0  0  0  0
128137  1  0  0  0  0
129138  1  0  0  0  0
130139  1  0  0  0  0
131140  1  0  0  0  0
M  END
$$$$
