8ZP1
  PyMOL3.1          3D                             0

 46 48  0  0  0  0  0  0  0  0999 V2000
  133.4010  130.7320  129.7850 N   0  0  0  0  0  0  0  0  0  0  0  0
  134.2610  128.4970  130.1280 C   0  0  0  0  0  0  0  0  0  0  0  0
  133.7650  128.0970  128.8810 O   0  0  0  0  0  0  0  0  0  0  0  0
  133.4030  129.6240  130.6820 C   0  0  0  0  0  0  0  0  0  0  0  0
  132.8930  126.8770  131.1980 O   0  0  0  0  0  0  0  0  0  0  0  0
  132.9230  130.3040  128.5050 C   0  0  0  0  0  0  0  0  0  0  0  0
  131.7250  124.6250  130.2520 O   0  0  0  0  0  0  0  0  0  0  0  0
  133.7960  129.1640  127.9860 C   0  0  0  0  0  0  0  0  0  0  0  0
  134.2180  127.3290  131.1020 C   0  0  0  0  0  0  0  0  0  0  0  0
  132.6440  125.8340  132.0930 C   0  0  0  0  0  0  0  0  0  0  0  0
  132.9770  125.9580  133.4310 C   0  0  0  0  0  0  0  0  0  0  0  0
  132.7190  124.9170  134.3050 C   0  0  0  0  0  0  0  0  0  0  0  0
  132.1250  123.7580  133.8410 C   0  0  0  0  0  0  0  0  0  0  0  0
  131.7940  123.6330  132.5020 C   0  0  0  0  0  0  0  0  0  0  0  0
  132.0460  124.6770  131.6220 C   0  0  0  0  0  0  0  0  0  0  0  0
  131.2910  123.4230  129.6730 C   0  0  0  0  0  0  0  0  0  0  0  0
  132.4950  122.5490  129.3330 C   0  0  0  0  0  0  0  0  0  0  0  0
  135.1540  126.2400  130.5790 C   0  0  0  0  0  0  0  0  0  0  0  0
  136.4220  126.1140  131.1230 C   0  0  0  0  0  0  0  0  0  0  0  0
  137.2850  125.1380  130.6540 C   0  0  0  0  0  0  0  0  0  0  0  0
  136.8820  124.2870  129.6370 C   0  0  0  0  0  0  0  0  0  0  0  0
  135.6160  124.4140  129.0900 C   0  0  0  0  0  0  0  0  0  0  0  0
  134.7520  125.3920  129.5600 C   0  0  0  0  0  0  0  0  0  0  0  0
  133.1320  123.0710  128.6260 H   0  0  0  0  0  0  0  0  0  0  0  0
  133.0550  122.3380  130.2400 H   0  0  0  0  0  0  0  0  0  0  0  0
  132.1540  121.6170  128.8930 H   0  0  0  0  0  0  0  0  0  0  0  0
  130.6120  122.8900  130.3280 H   0  0  0  0  0  0  0  0  0  0  0  0
  130.7650  123.6560  128.7540 H   0  0  0  0  0  0  0  0  0  0  0  0
  131.3250  122.7210  132.1530 H   0  0  0  0  0  0  0  0  0  0  0  0
  131.9250  122.9410  134.5250 H   0  0  0  0  0  0  0  0  0  0  0  0
  132.9840  125.0090  135.3520 H   0  0  0  0  0  0  0  0  0  0  0  0
  133.4430  126.8670  133.7930 H   0  0  0  0  0  0  0  0  0  0  0  0
  134.5630  127.6650  132.0720 H   0  0  0  0  0  0  0  0  0  0  0  0
  133.7640  125.4920  129.1320 H   0  0  0  0  0  0  0  0  0  0  0  0
  135.3000  123.7480  128.2950 H   0  0  0  0  0  0  0  0  0  0  0  0
  137.5580  123.5240  129.2740 H   0  0  0  0  0  0  0  0  0  0  0  0
  138.2740  125.0390  131.0830 H   0  0  0  0  0  0  0  0  0  0  0  0
  136.7390  126.7800  131.9170 H   0  0  0  0  0  0  0  0  0  0  0  0
  135.2790  128.8440  130.0170 H   0  0  0  0  0  0  0  0  0  0  0  0
  133.4270  128.8350  127.0230 H   0  0  0  0  0  0  0  0  0  0  0  0
  134.8160  129.5170  127.8840 H   0  0  0  0  0  0  0  0  0  0  0  0
  132.9600  131.1330  127.8100 H   0  0  0  0  0  0  0  0  0  0  0  0
  131.9010  129.9580  128.6040 H   0  0  0  0  0  0  0  0  0  0  0  0
  132.8190  131.4330  130.1320 H   0  0  0  0  0  0  0  0  0  0  0  0
  133.8190  129.9300  131.6320 H   0  0  0  0  0  0  0  0  0  0  0  0
  132.3860  129.2720  130.8220 H   0  0  0  0  0  0  0  0  0  0  0  0
  2  3  1  0  0  0  0
  1  4  1  0  0  0  0
  2  4  1  0  0  0  0
  1  6  1  0  0  0  0
  3  8  1  0  0  0  0
  6  8  1  0  0  0  0
  2  9  1  0  0  0  0
  5  9  1  0  0  0  0
  5 10  1  0  0  0  0
 10 11  1  0  0  0  0
 11 12  2  0  0  0  0
 12 13  1  0  0  0  0
 13 14  2  0  0  0  0
  7 15  1  0  0  0  0
 10 15  2  0  0  0  0
 14 15  1  0  0  0  0
  7 16  1  0  0  0  0
 16 17  1  0  0  0  0
  9 18  1  0  0  0  0
 18 19  2  0  0  0  0
 19 20  1  0  0  0  0
 20 21  2  0  0  0  0
 21 22  1  0  0  0  0
 18 23  1  0  0  0  0
 22 23  2  0  0  0  0
 17 24  1  0  0  0  0
 17 25  1  0  0  0  0
 17 26  1  0  0  0  0
 16 27  1  0  0  0  0
 16 28  1  0  0  0  0
 14 29  1  0  0  0  0
 13 30  1  0  0  0  0
 12 31  1  0  0  0  0
 11 32  1  0  0  0  0
  9 33  1  0  0  0  0
 23 34  1  0  0  0  0
 22 35  1  0  0  0  0
 21 36  1  0  0  0  0
 20 37  1  0  0  0  0
 19 38  1  0  0  0  0
  2 39  1  0  0  0  0
  8 40  1  0  0  0  0
  8 41  1  0  0  0  0
  6 42  1  0  0  0  0
  6 43  1  0  0  0  0
  1 44  1  0  0  0  0
  4 45  1  0  0  0  0
  4 46  1  0  0  0  0
M  END
$$$$
