6WL6
  PyMOL3.1          3D                             0

 23 25  0  0  0  0  0  0  0  0999 V2000
    0.0580  110.9220   42.5560 C   0  0  0  0  0  0  0  0  0  0  0  0
    0.5240  109.4770   42.7690 C   0  0  0  0  0  0  0  0  0  0  0  0
    0.5010  108.8190   41.3800 C   0  0  0  0  0  0  0  0  0  0  0  0
   -0.4630  108.7880   43.7360 C   0  0  0  0  0  0  0  0  0  0  0  0
    0.0620  107.4400   44.2840 C   0  0  0  0  0  0  0  0  0  0  0  0
   -0.9430  106.8810   45.3020 C   0  0  0  0  0  0  0  0  0  0  0  0
   -0.5330  105.5150   45.6670 N   0  0  0  0  0  0  0  0  0  0  0  0
    1.3960  107.6410   44.8730 N   0  0  0  0  0  0  0  0  0  0  0  0
    1.5270  108.4580   46.0870 C   0  0  0  0  0  0  0  0  0  0  0  0
    2.7050  108.0910   46.9890 C   0  0  0  0  0  0  0  0  0  0  0  0
    3.9500  107.8910   46.1230 C   0  0  0  0  0  0  0  0  0  0  0  0
    5.2950  108.1370   46.4290 C   0  0  0  0  0  0  0  0  0  0  0  0
    6.1490  107.8540   45.3990 C   0  0  0  0  0  0  0  0  0  0  0  0
    5.3270  107.2450   44.0340 S   0  0  0  0  0  0  0  0  0  0  0  0
    3.7920  107.3900   44.8340 C   0  0  0  0  0  0  0  0  0  0  0  0
    2.4860  107.0980   44.2650 C   0  0  0  0  0  0  0  0  0  0  0  0
    2.4050  106.4600   43.2470 O   0  0  0  0  0  0  0  0  0  0  0  0
    5.8100  108.6930   47.7180 C   0  0  0  0  0  0  0  0  0  0  0  0
    5.4110  108.2320   48.9900 C   0  0  0  0  0  0  0  0  0  0  0  0
    5.9550  108.8210   50.1300 C   0  0  0  0  0  0  0  0  0  0  0  0
    6.8630  109.8640   49.9890 C   0  0  0  0  0  0  0  0  0  0  0  0
    7.2180  110.2940   48.7770 N   0  0  0  0  0  0  0  0  0  0  0  0
    6.7230  109.7590   47.6570 C   0  0  0  0  0  0  0  0  0  0  0  0
  1  2  1  0  0  0  0
  2  3  1  0  0  0  0
  2  4  1  0  0  0  0
  4  5  1  0  0  0  0
  5  6  1  0  0  0  0
  6  7  1  0  0  0  0
  5  8  1  0  0  0  0
  8  9  1  0  0  0  0
  9 10  1  0  0  0  0
 10 11  1  0  0  0  0
 11 12  1  0  0  0  0
 12 13  2  0  0  0  0
 13 14  1  0  0  0  0
 11 15  2  0  0  0  0
 14 15  1  0  0  0  0
  8 16  1  0  0  0  0
 15 16  1  0  0  0  0
 16 17  2  0  0  0  0
 12 18  1  0  0  0  0
 18 19  1  0  0  0  0
 19 20  2  0  0  0  0
 20 21  1  0  0  0  0
 21 22  2  0  0  0  0
 18 23  2  0  0  0  0
 22 23  1  0  0  0  0
M  END
$$$$
