6WL6
  PyMOL3.1          3D                             0

 46 50  0  0  0  0  0  0  0  0999 V2000
   23.3990   96.1780   50.9100 C   0  0  0  0  0  0  0  0  0  0  0  0
   22.9640   97.1510   49.8060 C   0  0  0  0  0  0  0  0  0  0  0  0
   22.9580   96.3790   48.4760 C   0  0  0  0  0  0  0  0  0  0  0  0
   23.9710   98.3190   49.7690 C   0  0  0  0  0  0  0  0  0  0  0  0
   23.4110   99.5110   48.9520 C   0  0  0  0  0  0  0  0  0  0  0  0
   24.3780  100.6830   49.0550 C   0  0  0  0  0  0  0  0  0  0  0  0
   23.9990  101.6550   48.0250 N   0  0  0  0  0  0  0  0  0  0  0  0
   22.0500   99.8720   49.4240 N   0  0  0  0  0  0  0  0  0  0  0  0
   21.8680  100.4370   50.7610 C   0  0  0  0  0  0  0  0  0  0  0  0
   20.6860  101.3920   50.8840 C   0  0  0  0  0  0  0  0  0  0  0  0
   19.4620  100.7710   50.2410 C   0  0  0  0  0  0  0  0  0  0  0  0
   18.1170  100.9370   50.5900 C   0  0  0  0  0  0  0  0  0  0  0  0
   17.2870  100.2140   49.7920 C   0  0  0  0  0  0  0  0  0  0  0  0
   18.1380   99.3530   48.5770 S   0  0  0  0  0  0  0  0  0  0  0  0
   19.6550   99.9470   49.1460 C   0  0  0  0  0  0  0  0  0  0  0  0
   20.9810   99.6140   48.6120 C   0  0  0  0  0  0  0  0  0  0  0  0
   21.1000   99.1060   47.5060 O   0  0  0  0  0  0  0  0  0  0  0  0
   17.5830  101.7760   51.7320 C   0  0  0  0  0  0  0  0  0  0  0  0
   17.9480  103.1110   51.9330 C   0  0  0  0  0  0  0  0  0  0  0  0
   17.4090  103.8060   53.0200 C   0  0  0  0  0  0  0  0  0  0  0  0
   16.5030  103.1800   53.8770 C   0  0  0  0  0  0  0  0  0  0  0  0
   16.1580  101.9110   53.6600 N   0  0  0  0  0  0  0  0  0  0  0  0
   16.6730  101.2210   52.6400 C   0  0  0  0  0  0  0  0  0  0  0  0
    0.0580  110.9220   42.5560 C   0  0  0  0  0  0  0  0  0  0  0  0
    0.5240  109.4770   42.7690 C   0  0  0  0  0  0  0  0  0  0  0  0
    0.5010  108.8190   41.3800 C   0  0  0  0  0  0  0  0  0  0  0  0
   -0.4630  108.7880   43.7360 C   0  0  0  0  0  0  0  0  0  0  0  0
    0.0620  107.4400   44.2840 C   0  0  0  0  0  0  0  0  0  0  0  0
   -0.9430  106.8810   45.3020 C   0  0  0  0  0  0  0  0  0  0  0  0
   -0.5330  105.5150   45.6670 N   0  0  0  0  0  0  0  0  0  0  0  0
    1.3960  107.6410   44.8730 N   0  0  0  0  0  0  0  0  0  0  0  0
    1.5270  108.4580   46.0870 C   0  0  0  0  0  0  0  0  0  0  0  0
    2.7050  108.0910   46.9890 C   0  0  0  0  0  0  0  0  0  0  0  0
    3.9500  107.8910   46.1230 C   0  0  0  0  0  0  0  0  0  0  0  0
    5.2950  108.1370   46.4290 C   0  0  0  0  0  0  0  0  0  0  0  0
    6.1490  107.8540   45.3990 C   0  0  0  0  0  0  0  0  0  0  0  0
    5.3270  107.2450   44.0340 S   0  0  0  0  0  0  0  0  0  0  0  0
    3.7920  107.3900   44.8340 C   0  0  0  0  0  0  0  0  0  0  0  0
    2.4860  107.0980   44.2650 C   0  0  0  0  0  0  0  0  0  0  0  0
    2.4050  106.4600   43.2470 O   0  0  0  0  0  0  0  0  0  0  0  0
    5.8100  108.6930   47.7180 C   0  0  0  0  0  0  0  0  0  0  0  0
    5.4110  108.2320   48.9900 C   0  0  0  0  0  0  0  0  0  0  0  0
    5.9550  108.8210   50.1300 C   0  0  0  0  0  0  0  0  0  0  0  0
    6.8630  109.8640   49.9890 C   0  0  0  0  0  0  0  0  0  0  0  0
    7.2180  110.2940   48.7770 N   0  0  0  0  0  0  0  0  0  0  0  0
    6.7230  109.7590   47.6570 C   0  0  0  0  0  0  0  0  0  0  0  0
  1  2  1  0  0  0  0
  2  3  1  0  0  0  0
  2  4  1  0  0  0  0
  4  5  1  0  0  0  0
  5  6  1  0  0  0  0
  6  7  1  0  0  0  0
  5  8  1  0  0  0  0
  8  9  1  0  0  0  0
  9 10  1  0  0  0  0
 10 11  1  0  0  0  0
 11 12  1  0  0  0  0
 12 13  2  0  0  0  0
 13 14  1  0  0  0  0
 11 15  2  0  0  0  0
 14 15  1  0  0  0  0
  8 16  1  0  0  0  0
 15 16  1  0  0  0  0
 16 17  2  0  0  0  0
 12 18  1  0  0  0  0
 18 19  1  0  0  0  0
 19 20  2  0  0  0  0
 20 21  1  0  0  0  0
 21 22  2  0  0  0  0
 18 23  2  0  0  0  0
 22 23  1  0  0  0  0
 24 25  1  0  0  0  0
 25 26  1  0  0  0  0
 25 27  1  0  0  0  0
 27 28  1  0  0  0  0
 28 29  1  0  0  0  0
 29 30  1  0  0  0  0
 28 31  1  0  0  0  0
 31 32  1  0  0  0  0
 32 33  1  0  0  0  0
 33 34  1  0  0  0  0
 34 35  1  0  0  0  0
 35 36  2  0  0  0  0
 36 37  1  0  0  0  0
 34 38  2  0  0  0  0
 37 38  1  0  0  0  0
 31 39  1  0  0  0  0
 38 39  1  0  0  0  0
 39 40  2  0  0  0  0
 35 41  1  0  0  0  0
 41 42  1  0  0  0  0
 42 43  2  0  0  0  0
 43 44  1  0  0  0  0
 44 45  2  0  0  0  0
 41 46  2  0  0  0  0
 45 46  1  0  0  0  0
M  END
$$$$
