8X94
  PyMOL3.1          3D                             0

 23 25  0  0  0  0  0  0  0  0999 V2000
  146.0380  110.9910  141.7810 O   0  0  0  0  0  0  0  0  0  0  0  0
  147.6640  112.1150  147.6240 O   0  0  0  0  0  0  0  0  0  0  0  0
  145.2780  113.0170  141.8940 N   0  0  0  0  0  0  0  0  0  0  0  0
  145.5270  114.1640  143.9210 N   0  0  0  0  0  0  0  0  0  0  0  0
  142.6700  112.4030  135.5630 N   0  0  0  0  0  0  0  0  0  0  0  0
  144.3880  115.3600  142.0690 C   0  0  0  0  0  0  0  0  0  0  0  0
  145.0850  114.1300  142.6460 C   0  0  0  0  0  0  0  0  0  0  0  0
  146.3140  111.9990  143.7000 C   0  0  0  0  0  0  0  0  0  0  0  0
  145.8760  111.9660  142.4240 C   0  0  0  0  0  0  0  0  0  0  0  0
  146.1320  113.1200  144.4460 C   0  0  0  0  0  0  0  0  0  0  0  0
  144.7930  112.9340  140.5260 C   0  0  0  0  0  0  0  0  0  0  0  0
  145.3260  116.5590  142.1540 C   0  0  0  0  0  0  0  0  0  0  0  0
  143.1060  115.6480  142.8420 C   0  0  0  0  0  0  0  0  0  0  0  0
  146.9530  110.8920  144.2460 C   0  0  0  0  0  0  0  0  0  0  0  0
  146.5800  113.1620  145.7590 C   0  0  0  0  0  0  0  0  0  0  0  0
  145.4820  113.4510  139.4400 C   0  0  0  0  0  0  0  0  0  0  0  0
  143.5850  112.2890  140.3260 C   0  0  0  0  0  0  0  0  0  0  0  0
  147.2110  112.0660  146.3030 C   0  0  0  0  0  0  0  0  0  0  0  0
  147.3970  110.9320  145.5490 C   0  0  0  0  0  0  0  0  0  0  0  0
  144.9470  113.3250  138.1670 C   0  0  0  0  0  0  0  0  0  0  0  0
  143.0530  112.1620  139.0610 C   0  0  0  0  0  0  0  0  0  0  0  0
  143.7340  112.6780  137.9780 C   0  0  0  0  0  0  0  0  0  0  0  0
  143.1280  112.5230  136.5890 C   0  0  0  0  0  0  0  0  0  0  0  0
  3  7  1  0  0  0  0
  4  7  2  0  0  0  0
  6  7  1  0  0  0  0
  1  9  2  0  0  0  0
  3  9  1  0  0  0  0
  8  9  1  0  0  0  0
  4 10  1  0  0  0  0
  8 10  2  0  0  0  0
  3 11  1  0  0  0  0
  6 12  1  0  0  0  0
  6 13  1  0  0  0  0
  8 14  1  0  0  0  0
 10 15  1  0  0  0  0
 11 16  1  0  0  0  0
 11 17  2  0  0  0  0
  2 18  1  0  0  0  0
 15 18  2  0  0  0  0
 14 19  2  0  0  0  0
 18 19  1  0  0  0  0
 16 20  2  0  0  0  0
 17 21  1  0  0  0  0
 20 22  1  0  0  0  0
 21 22  2  0  0  0  0
  5 23  3  0  0  0  0
 22 23  1  0  0  0  0
M  END
$$$$
