6M22
  PyMOL3.1          3D                             0

 26 28  0  0  0  0  0  0  0  0999 V2000
  166.5320  172.6870  201.2740 Cl  0  0  0  0  0  0  0  0  0  0  0  0
  165.5500  174.0470  204.1200 Cl  0  0  0  0  0  0  0  0  0  0  0  0
  165.1370  172.5910  198.3300 O   0  0  0  0  0  0  0  0  0  0  0  0
  162.6380  175.2440  204.0050 O   0  0  0  0  0  0  0  0  0  0  0  0
  160.1220  177.2430  205.3550 O   0  0  0  0  0  0  0  0  0  0  0  0
  162.1580  177.0250  206.0750 O   0  0  0  0  0  0  0  0  0  0  0  0
  162.6240  172.7910  198.2120 C   0  0  0  0  0  0  0  0  0  0  0  0
  161.9670  171.4170  198.6280 C   0  0  0  0  0  0  0  0  0  0  0  0
  160.7020  171.0730  197.6960 C   0  0  0  0  0  0  0  0  0  0  0  0
  162.8120  170.3940  198.4060 C   0  0  0  0  0  0  0  0  0  0  0  0
  161.9500  173.7870  198.7800 C   0  0  0  0  0  0  0  0  0  0  0  0
  162.6880  172.9440  196.6780 C   0  0  0  0  0  0  0  0  0  0  0  0
  160.6640  169.4850  197.6670 C   0  0  0  0  0  0  0  0  0  0  0  0
  161.8160  169.0590  198.2740 C   0  0  0  0  0  0  0  0  0  0  0  0
  164.1270  172.8890  198.8520 C   0  0  0  0  0  0  0  0  0  0  0  0
  162.6550  173.9780  200.2390 C   0  0  0  0  0  0  0  0  0  0  0  0
  163.9690  173.3970  200.1620 C   0  0  0  0  0  0  0  0  0  0  0  0
  163.0900  174.4170  196.2440 C   0  0  0  0  0  0  0  0  0  0  0  0
  162.1610  174.6270  201.5580 C   0  0  0  0  0  0  0  0  0  0  0  0
  164.5800  174.7760  196.7600 C   0  0  0  0  0  0  0  0  0  0  0  0
  164.9180  173.4070  201.3950 C   0  0  0  0  0  0  0  0  0  0  0  0
  163.0830  174.6460  202.7830 C   0  0  0  0  0  0  0  0  0  0  0  0
  164.4550  174.0360  202.6950 C   0  0  0  0  0  0  0  0  0  0  0  0
  164.9890  176.1580  196.2160 C   0  0  0  0  0  0  0  0  0  0  0  0
  161.7410  176.3380  203.8050 C   0  0  0  0  0  0  0  0  0  0  0  0
  161.3180  176.9030  205.1610 C   0  0  0  0  0  0  0  0  0  0  0  0
  7  8  1  0  0  0  0
  7 11  1  0  0  0  0
  7 12  1  0  0  0  0
  8  9  1  0  0  0  0
  8 10  1  0  0  0  0
 10 14  1  0  0  0  0
 11 16  1  0  0  0  0
 12 18  1  0  0  0  0
  9 13  1  0  0  0  0
 13 14  1  0  0  0  0
  3 15  2  0  0  0  0
  7 15  1  0  0  0  0
 15 17  1  0  0  0  0
 16 19  4  0  0  0  0
 16 17  4  0  0  0  0
 17 21  4  0  0  0  0
 18 20  1  0  0  0  0
 20 24  1  0  0  0  0
  1 21  1  0  0  0  0
 21 23  4  0  0  0  0
  4 22  1  0  0  0  0
 19 22  4  0  0  0  0
 22 23  4  0  0  0  0
  2 23  1  0  0  0  0
  4 25  1  0  0  0  0
  5 26  4  0  0  0  0
  6 26  4  0  0  0  0
 25 26  1  0  0  0  0
M  END
$$$$
