6M22
  PyMOL3.1          3D                             0

 26 28  0  0  0  0  0  0  0  0999 V2000
  181.0180  175.2830  201.5310 Cl  0  0  0  0  0  0  0  0  0  0  0  0
  181.9520  173.8490  204.3640 Cl  0  0  0  0  0  0  0  0  0  0  0  0
  182.4310  175.4860  198.6590 O   0  0  0  0  0  0  0  0  0  0  0  0
  184.8490  172.5870  204.2350 O   0  0  0  0  0  0  0  0  0  0  0  0
  187.5660  170.6590  205.4060 O   0  0  0  0  0  0  0  0  0  0  0  0
  185.6930  171.1720  206.3820 O   0  0  0  0  0  0  0  0  0  0  0  0
  184.9000  175.0080  198.3940 C   0  0  0  0  0  0  0  0  0  0  0  0
  185.6200  176.4110  198.5380 C   0  0  0  0  0  0  0  0  0  0  0  0
  187.1040  176.3900  197.9200 C   0  0  0  0  0  0  0  0  0  0  0  0
  184.9980  177.3840  197.8410 C   0  0  0  0  0  0  0  0  0  0  0  0
  185.6110  174.1030  199.0610 C   0  0  0  0  0  0  0  0  0  0  0  0
  184.7280  174.5540  196.9300 C   0  0  0  0  0  0  0  0  0  0  0  0
  187.3990  177.9370  197.7420 C   0  0  0  0  0  0  0  0  0  0  0  0
  186.1850  178.4990  197.4520 C   0  0  0  0  0  0  0  0  0  0  0  0
  183.4300  175.0660  199.1200 C   0  0  0  0  0  0  0  0  0  0  0  0
  184.8720  173.9200  200.4990 C   0  0  0  0  0  0  0  0  0  0  0  0
  183.5740  174.5310  200.4220 C   0  0  0  0  0  0  0  0  0  0  0  0
  183.9530  173.1680  196.9030 C   0  0  0  0  0  0  0  0  0  0  0  0
  185.3400  173.2410  201.8060 C   0  0  0  0  0  0  0  0  0  0  0  0
  183.5310  172.7640  195.3980 C   0  0  0  0  0  0  0  0  0  0  0  0
  182.6160  174.5220  201.6490 C   0  0  0  0  0  0  0  0  0  0  0  0
  184.4140  173.2200  203.0260 C   0  0  0  0  0  0  0  0  0  0  0  0
  183.0560  173.8620  202.9440 C   0  0  0  0  0  0  0  0  0  0  0  0
  182.6610  171.4940  195.4660 C   0  0  0  0  0  0  0  0  0  0  0  0
  185.8190  171.5610  204.0130 C   0  0  0  0  0  0  0  0  0  0  0  0
  186.3900  171.1040  205.3500 C   0  0  0  0  0  0  0  0  0  0  0  0
  7  8  1  0  0  0  0
  8  9  1  0  0  0  0
  8 10  1  0  0  0  0
  7 11  1  0  0  0  0
  7 12  1  0  0  0  0
  9 13  1  0  0  0  0
 10 14  1  0  0  0  0
 13 14  1  0  0  0  0
  3 15  2  0  0  0  0
  7 15  1  0  0  0  0
 11 16  1  0  0  0  0
 15 17  1  0  0  0  0
 16 17  2  0  0  0  0
 12 18  1  0  0  0  0
 16 19  1  0  0  0  0
 18 20  1  0  0  0  0
  1 21  1  0  0  0  0
 17 21  1  0  0  0  0
  4 22  1  0  0  0  0
 19 22  2  0  0  0  0
  2 23  1  0  0  0  0
 21 23  2  0  0  0  0
 22 23  1  0  0  0  0
 20 24  1  0  0  0  0
  4 25  1  0  0  0  0
  5 26  2  0  0  0  0
  6 26  1  0  0  0  0
 25 26  1  0  0  0  0
M  END
$$$$
