7L9A
  PyMOL3.1          3D                             0

 82 90  0  0  0  0  0  0  0  0999 V2000
   32.4820  -15.0911   -2.4508 C   0  0  0  0  0  0  0  0  0  0  0  0
   32.8435  -13.7400   -2.8487 N   0  0  0  0  0  0  0  0  0  0  0  0
   30.6930  -12.9781   -2.5758 O   0  0  0  0  0  0  0  0  0  0  0  0
   31.8114  -12.7172   -2.8850 C   0  0  0  0  0  0  0  0  0  0  0  0
   31.9672   -6.4869   -4.7455 N   0  0  0  0  0  0  0  0  0  0  0  0
   34.1952   -6.8315   -4.2737 O   0  0  0  0  0  0  0  0  0  0  0  0
   32.1675  -11.2904   -3.2920 C   0  0  0  0  0  0  0  0  0  0  0  0
   32.1075   -2.6986   -7.8446 N   0  0  0  0  0  0  0  0  0  0  0  0
   33.7783   -1.1222   -7.5355 O   0  0  0  0  0  0  0  0  0  0  0  0
   31.1568  -10.4099   -3.6304 C   0  0  0  0  0  0  0  0  0  0  0  0
   32.8849   -0.5846  -13.7971 N   0  0  0  0  0  0  0  0  0  0  0  0
   31.4899   -9.1228   -3.9942 C   0  0  0  0  0  0  0  0  0  0  0  0
   32.3941   -1.7706  -14.2541 N   0  0  0  0  0  0  0  0  0  0  0  0
   32.8203   -8.7367   -4.0325 C   0  0  0  0  0  0  0  0  0  0  0  0
   30.1745   -7.8910  -13.6838 N   0  0  0  0  0  0  0  0  0  0  0  0
   33.8376   -9.6047   -3.6793 C   0  0  0  0  0  0  0  0  0  0  0  0
   33.4990  -10.8976   -3.3196 C   0  0  0  0  0  0  0  0  0  0  0  0
   33.1112   -7.2900   -4.3845 C   0  0  0  0  0  0  0  0  0  0  0  0
   32.0322   -5.0624   -5.0282 C   0  0  0  0  0  0  0  0  0  0  0  0
   32.0379   -4.5559   -6.3102 C   0  0  0  0  0  0  0  0  0  0  0  0
   32.0706   -3.1827   -6.4829 C   0  0  0  0  0  0  0  0  0  0  0  0
   32.0866   -2.3228   -5.3962 C   0  0  0  0  0  0  0  0  0  0  0  0
   32.0691   -2.8340   -4.1116 C   0  0  0  0  0  0  0  0  0  0  0  0
   32.0340   -4.2042   -3.9324 C   0  0  0  0  0  0  0  0  0  0  0  0
   32.0010   -4.7850   -2.5166 C   0  0  0  0  0  0  0  0  0  0  0  0
   33.0197   -1.6511   -8.2741 C   0  0  0  0  0  0  0  0  0  0  0  0
   33.0064   -1.2657   -9.7455 C   0  0  0  0  0  0  0  0  0  0  0  0
   33.4594   -0.0096  -10.1489 C   0  0  0  0  0  0  0  0  0  0  0  0
   33.4514    0.2984  -11.5016 C   0  0  0  0  0  0  0  0  0  0  0  0
   32.9935   -0.6565  -12.4492 C   0  0  0  0  0  0  0  0  0  0  0  0
   32.1559   -2.6010  -13.2381 C   0  0  0  0  0  0  0  0  0  0  0  0
   32.5522   -1.8975  -12.0538 C   0  0  0  0  0  0  0  0  0  0  0  0
   32.5619   -2.2103  -10.6683 C   0  0  0  0  0  0  0  0  0  0  0  0
   31.6452   -3.9032  -13.3502 C   0  0  0  0  0  0  0  0  0  0  0  0
   32.2152   -4.9323  -12.6126 C   0  0  0  0  0  0  0  0  0  0  0  0
   31.7381   -6.2330  -12.7132 C   0  0  0  0  0  0  0  0  0  0  0  0
   30.6756   -6.5285  -13.5637 C   0  0  0  0  0  0  0  0  0  0  0  0
   30.1018   -5.5148  -14.3076 C   0  0  0  0  0  0  0  0  0  0  0  0
   30.5768   -4.2124  -14.2104 C   0  0  0  0  0  0  0  0  0  0  0  0
   29.8790   -3.1542  -15.0686 C   0  0  0  0  0  0  0  0  0  0  0  0
   33.2516    0.5620  -14.6078 C   0  0  0  0  0  0  0  0  0  0  0  0
   16.5510   -5.8604  -14.7938 C   0  0  0  0  0  0  0  0  0  0  0  0
   17.1180   -6.7375  -13.7825 N   0  0  0  0  0  0  0  0  0  0  0  0
   16.9276   -5.1742  -12.1091 O   0  0  0  0  0  0  0  0  0  0  0  0
   17.2764   -6.2666  -12.4170 C   0  0  0  0  0  0  0  0  0  0  0  0
   19.4720  -11.2850   -8.6615 N   0  0  0  0  0  0  0  0  0  0  0  0
   19.9863   -9.4107   -7.4440 O   0  0  0  0  0  0  0  0  0  0  0  0
   17.8662   -7.2046  -11.3641 C   0  0  0  0  0  0  0  0  0  0  0  0
   18.7015  -14.8049   -5.4123 N   0  0  0  0  0  0  0  0  0  0  0  0
   19.6951  -14.8788   -3.3055 O   0  0  0  0  0  0  0  0  0  0  0  0
   18.0004   -8.5580  -11.6503 C   0  0  0  0  0  0  0  0  0  0  0  0
   14.6486  -18.5348   -2.2025 N   0  0  0  0  0  0  0  0  0  0  0  0
   18.5307   -9.4185  -10.7055 C   0  0  0  0  0  0  0  0  0  0  0  0
   13.7249  -18.3225   -3.1779 N   0  0  0  0  0  0  0  0  0  0  0  0
   18.9174   -8.9102   -9.4720 C   0  0  0  0  0  0  0  0  0  0  0  0
   11.4358  -15.6816   -8.7341 N   0  0  0  0  0  0  0  0  0  0  0  0
   18.7811   -7.5605   -9.1811 C   0  0  0  0  0  0  0  0  0  0  0  0
   18.2506   -6.7044  -10.1326 C   0  0  0  0  0  0  0  0  0  0  0  0
   19.4992   -9.8515   -8.4262 C   0  0  0  0  0  0  0  0  0  0  0  0
   20.0259  -12.1981   -7.6758 C   0  0  0  0  0  0  0  0  0  0  0  0
   19.1563  -13.0477   -7.0149 C   0  0  0  0  0  0  0  0  0  0  0  0
   19.6511  -13.9281   -6.0691 C   0  0  0  0  0  0  0  0  0  0  0  0
   21.0132  -13.9647   -5.7734 C   0  0  0  0  0  0  0  0  0  0  0  0
   21.8888  -13.1107   -6.4283 C   0  0  0  0  0  0  0  0  0  0  0  0
   21.3972  -12.2296   -7.3886 C   0  0  0  0  0  0  0  0  0  0  0  0
   22.3770  -11.2994   -8.1034 C   0  0  0  0  0  0  0  0  0  0  0  0
   18.8151  -15.2286   -4.0143 C   0  0  0  0  0  0  0  0  0  0  0  0
   17.7342  -16.1481   -3.4619 C   0  0  0  0  0  0  0  0  0  0  0  0
   17.9602  -16.8318   -2.2680 C   0  0  0  0  0  0  0  0  0  0  0  0
   16.9657  -17.6557   -1.7686 C   0  0  0  0  0  0  0  0  0  0  0  0
   15.7439  -17.7967   -2.4842 C   0  0  0  0  0  0  0  0  0  0  0  0
   14.1963  -17.4911   -4.1052 C   0  0  0  0  0  0  0  0  0  0  0  0
   15.5105  -17.1236   -3.6594 C   0  0  0  0  0  0  0  0  0  0  0  0
   16.5344  -16.2776   -4.1597 C   0  0  0  0  0  0  0  0  0  0  0  0
   13.5090  -17.0668   -5.2556 C   0  0  0  0  0  0  0  0  0  0  0  0
   13.6370  -15.7456   -5.6899 C   0  0  0  0  0  0  0  0  0  0  0  0
   12.9693  -15.2799   -6.8232 C   0  0  0  0  0  0  0  0  0  0  0  0
   12.1483  -16.1389   -7.5486 C   0  0  0  0  0  0  0  0  0  0  0  0
   12.0096  -17.4534   -7.1322 C   0  0  0  0  0  0  0  0  0  0  0  0
   12.6738  -17.9212   -6.0017 C   0  0  0  0  0  0  0  0  0  0  0  0
   12.4338  -19.3878   -5.6407 C   0  0  0  0  0  0  0  0  0  0  0  0
   14.4916  -19.3886   -1.0375 C   0  0  0  0  0  0  0  0  0  0  0  0
  1  2  1  0  0  0  0
  2  4  1  0  0  0  0
  3  4  2  0  0  0  0
  4  7  1  0  0  0  0
  7 10  2  0  0  0  0
 10 12  1  0  0  0  0
 11 13  1  0  0  0  0
 12 14  2  0  0  0  0
 14 16  1  0  0  0  0
  7 17  1  0  0  0  0
 16 17  2  0  0  0  0
  5 18  1  0  0  0  0
  6 18  2  0  0  0  0
 14 18  1  0  0  0  0
  5 19  1  0  0  0  0
 19 20  1  0  0  0  0
  8 21  1  0  0  0  0
 20 21  2  0  0  0  0
 21 22  1  0  0  0  0
 22 23  2  0  0  0  0
 19 24  2  0  0  0  0
 23 24  1  0  0  0  0
 24 25  1  0  0  0  0
  8 26  1  0  0  0  0
  9 26  2  0  0  0  0
 26 27  1  0  0  0  0
 27 28  1  0  0  0  0
 28 29  2  0  0  0  0
 11 30  1  0  0  0  0
 29 30  1  0  0  0  0
 13 31  2  0  0  0  0
 30 32  2  0  0  0  0
 31 32  1  0  0  0  0
 27 33  2  0  0  0  0
 32 33  1  0  0  0  0
 31 34  1  0  0  0  0
 34 35  2  0  0  0  0
 35 36  1  0  0  0  0
 15 37  1  0  0  0  0
 36 37  2  0  0  0  0
 37 38  1  0  0  0  0
 34 39  1  0  0  0  0
 38 39  2  0  0  0  0
 39 40  1  0  0  0  0
 11 41  1  0  0  0  0
 42 43  1  0  0  0  0
 43 45  1  0  0  0  0
 44 45  2  0  0  0  0
 45 48  1  0  0  0  0
 48 51  2  0  0  0  0
 51 53  1  0  0  0  0
 52 54  1  0  0  0  0
 53 55  2  0  0  0  0
 55 57  1  0  0  0  0
 48 58  1  0  0  0  0
 57 58  2  0  0  0  0
 46 59  1  0  0  0  0
 47 59  2  0  0  0  0
 55 59  1  0  0  0  0
 46 60  1  0  0  0  0
 60 61  1  0  0  0  0
 49 62  1  0  0  0  0
 61 62  2  0  0  0  0
 62 63  1  0  0  0  0
 63 64  2  0  0  0  0
 60 65  2  0  0  0  0
 64 65  1  0  0  0  0
 65 66  1  0  0  0  0
 49 67  1  0  0  0  0
 50 67  2  0  0  0  0
 67 68  1  0  0  0  0
 68 69  1  0  0  0  0
 69 70  2  0  0  0  0
 52 71  1  0  0  0  0
 70 71  1  0  0  0  0
 54 72  2  0  0  0  0
 71 73  2  0  0  0  0
 72 73  1  0  0  0  0
 68 74  2  0  0  0  0
 73 74  1  0  0  0  0
 72 75  1  0  0  0  0
 75 76  2  0  0  0  0
 76 77  1  0  0  0  0
 56 78  1  0  0  0  0
 77 78  2  0  0  0  0
 78 79  1  0  0  0  0
 75 80  1  0  0  0  0
 79 80  2  0  0  0  0
 80 81  1  0  0  0  0
 52 82  1  0  0  0  0
M  END
$$$$
