7L9A
  PyMOL3.1          3D                             0

 41 45  0  0  0  0  0  0  0  0999 V2000
   16.5510   -5.8604  -14.7938 C   0  0  0  0  0  0  0  0  0  0  0  0
   17.1180   -6.7375  -13.7825 N   0  0  0  0  0  0  0  0  0  0  0  0
   16.9276   -5.1742  -12.1091 O   0  0  0  0  0  0  0  0  0  0  0  0
   17.2764   -6.2666  -12.4170 C   0  0  0  0  0  0  0  0  0  0  0  0
   19.4720  -11.2850   -8.6615 N   0  0  0  0  0  0  0  0  0  0  0  0
   19.9863   -9.4107   -7.4440 O   0  0  0  0  0  0  0  0  0  0  0  0
   17.8662   -7.2046  -11.3641 C   0  0  0  0  0  0  0  0  0  0  0  0
   18.7015  -14.8049   -5.4123 N   0  0  0  0  0  0  0  0  0  0  0  0
   19.6951  -14.8788   -3.3055 O   0  0  0  0  0  0  0  0  0  0  0  0
   18.0004   -8.5580  -11.6503 C   0  0  0  0  0  0  0  0  0  0  0  0
   14.6486  -18.5348   -2.2025 N   0  0  0  0  0  0  0  0  0  0  0  0
   18.5307   -9.4185  -10.7055 C   0  0  0  0  0  0  0  0  0  0  0  0
   13.7249  -18.3225   -3.1779 N   0  0  0  0  0  0  0  0  0  0  0  0
   18.9174   -8.9102   -9.4720 C   0  0  0  0  0  0  0  0  0  0  0  0
   11.4358  -15.6816   -8.7341 N   0  0  0  0  0  0  0  0  0  0  0  0
   18.7811   -7.5605   -9.1811 C   0  0  0  0  0  0  0  0  0  0  0  0
   18.2506   -6.7044  -10.1326 C   0  0  0  0  0  0  0  0  0  0  0  0
   19.4992   -9.8515   -8.4262 C   0  0  0  0  0  0  0  0  0  0  0  0
   20.0259  -12.1981   -7.6758 C   0  0  0  0  0  0  0  0  0  0  0  0
   19.1563  -13.0477   -7.0149 C   0  0  0  0  0  0  0  0  0  0  0  0
   19.6511  -13.9281   -6.0691 C   0  0  0  0  0  0  0  0  0  0  0  0
   21.0132  -13.9647   -5.7734 C   0  0  0  0  0  0  0  0  0  0  0  0
   21.8888  -13.1107   -6.4283 C   0  0  0  0  0  0  0  0  0  0  0  0
   21.3972  -12.2296   -7.3886 C   0  0  0  0  0  0  0  0  0  0  0  0
   22.3770  -11.2994   -8.1034 C   0  0  0  0  0  0  0  0  0  0  0  0
   18.8151  -15.2286   -4.0143 C   0  0  0  0  0  0  0  0  0  0  0  0
   17.7342  -16.1481   -3.4619 C   0  0  0  0  0  0  0  0  0  0  0  0
   17.9602  -16.8318   -2.2680 C   0  0  0  0  0  0  0  0  0  0  0  0
   16.9657  -17.6557   -1.7686 C   0  0  0  0  0  0  0  0  0  0  0  0
   15.7439  -17.7967   -2.4842 C   0  0  0  0  0  0  0  0  0  0  0  0
   14.1963  -17.4911   -4.1052 C   0  0  0  0  0  0  0  0  0  0  0  0
   15.5105  -17.1236   -3.6594 C   0  0  0  0  0  0  0  0  0  0  0  0
   16.5344  -16.2776   -4.1597 C   0  0  0  0  0  0  0  0  0  0  0  0
   13.5090  -17.0668   -5.2556 C   0  0  0  0  0  0  0  0  0  0  0  0
   13.6370  -15.7456   -5.6899 C   0  0  0  0  0  0  0  0  0  0  0  0
   12.9693  -15.2799   -6.8232 C   0  0  0  0  0  0  0  0  0  0  0  0
   12.1483  -16.1389   -7.5486 C   0  0  0  0  0  0  0  0  0  0  0  0
   12.0096  -17.4534   -7.1322 C   0  0  0  0  0  0  0  0  0  0  0  0
   12.6738  -17.9212   -6.0017 C   0  0  0  0  0  0  0  0  0  0  0  0
   12.4338  -19.3878   -5.6407 C   0  0  0  0  0  0  0  0  0  0  0  0
   14.4916  -19.3886   -1.0375 C   0  0  0  0  0  0  0  0  0  0  0  0
  1  2  1  0  0  0  0
  2  4  1  0  0  0  0
  3  4  2  0  0  0  0
  4  7  1  0  0  0  0
  7 10  2  0  0  0  0
 10 12  1  0  0  0  0
 11 13  1  0  0  0  0
 12 14  2  0  0  0  0
 14 16  1  0  0  0  0
  7 17  1  0  0  0  0
 16 17  2  0  0  0  0
  5 18  1  0  0  0  0
  6 18  2  0  0  0  0
 14 18  1  0  0  0  0
  5 19  1  0  0  0  0
 19 20  1  0  0  0  0
  8 21  1  0  0  0  0
 20 21  2  0  0  0  0
 21 22  1  0  0  0  0
 22 23  2  0  0  0  0
 19 24  2  0  0  0  0
 23 24  1  0  0  0  0
 24 25  1  0  0  0  0
  8 26  1  0  0  0  0
  9 26  2  0  0  0  0
 26 27  1  0  0  0  0
 27 28  1  0  0  0  0
 28 29  2  0  0  0  0
 11 30  1  0  0  0  0
 29 30  1  0  0  0  0
 13 31  2  0  0  0  0
 30 32  2  0  0  0  0
 31 32  1  0  0  0  0
 27 33  2  0  0  0  0
 32 33  1  0  0  0  0
 31 34  1  0  0  0  0
 34 35  2  0  0  0  0
 35 36  1  0  0  0  0
 15 37  1  0  0  0  0
 36 37  2  0  0  0  0
 37 38  1  0  0  0  0
 34 39  1  0  0  0  0
 38 39  2  0  0  0  0
 39 40  1  0  0  0  0
 11 41  1  0  0  0  0
M  END
$$$$
