7W4O
  PyMOL3.1          3D                             0

 68 76  0  0  0  0  0  0  0  0999 V2000
   72.0340  184.9930  144.9820 Cl  0  0  0  0  0  0  0  0  0  0  0  0
   73.9450  180.8770  141.2070 S   0  0  0  0  0  0  0  0  0  0  0  0
   72.5240  182.9380  142.8560 S   0  0  0  0  0  0  0  0  0  0  0  0
   72.9750  179.8130  141.4840 O   0  0  0  0  0  0  0  0  0  0  0  0
   73.7920  181.6040  139.9400 O   0  0  0  0  0  0  0  0  0  0  0  0
   77.7540  179.9190  142.0730 N   0  0  0  0  0  0  0  0  0  0  0  0
   76.1790  181.6030  143.2050 N   0  0  0  0  0  0  0  0  0  0  0  0
   75.3800  180.1590  141.1230 N   0  0  0  0  0  0  0  0  0  0  0  0
   78.1220  178.9040  141.0940 C   0  0  0  0  0  0  0  0  0  0  0  0
   79.0690  177.8720  141.7060 C   0  0  0  0  0  0  0  0  0  0  0  0
   77.6260  177.4780  141.3610 C   0  0  0  0  0  0  0  0  0  0  0  0
   78.3530  179.2850  139.6150 C   0  0  0  0  0  0  0  0  0  0  0  0
   76.4300  180.5280  142.0910 C   0  0  0  0  0  0  0  0  0  0  0  0
   74.8080  182.3240  143.3290 C   0  0  0  0  0  0  0  0  0  0  0  0
   73.7260  182.0320  142.4310 C   0  0  0  0  0  0  0  0  0  0  0  0
   74.3450  183.4400  144.3820 C   0  0  0  0  0  0  0  0  0  0  0  0
   72.9820  183.7870  144.0750 C   0  0  0  0  0  0  0  0  0  0  0  0
   53.3270   72.0340  144.9820 Cl  0  0  0  0  0  0  0  0  0  0  0  0
   57.4430   73.9450  141.2070 S   0  0  0  0  0  0  0  0  0  0  0  0
   55.3820   72.5240  142.8560 S   0  0  0  0  0  0  0  0  0  0  0  0
   58.5070   72.9750  141.4840 O   0  0  0  0  0  0  0  0  0  0  0  0
   56.7160   73.7920  139.9400 O   0  0  0  0  0  0  0  0  0  0  0  0
   58.4010   77.7540  142.0730 N   0  0  0  0  0  0  0  0  0  0  0  0
   56.7170   76.1790  143.2050 N   0  0  0  0  0  0  0  0  0  0  0  0
   58.1610   75.3800  141.1230 N   0  0  0  0  0  0  0  0  0  0  0  0
   59.4160   78.1220  141.0940 C   0  0  0  0  0  0  0  0  0  0  0  0
   60.4480   79.0690  141.7060 C   0  0  0  0  0  0  0  0  0  0  0  0
   60.8420   77.6260  141.3610 C   0  0  0  0  0  0  0  0  0  0  0  0
   59.0350   78.3530  139.6150 C   0  0  0  0  0  0  0  0  0  0  0  0
   57.7920   76.4300  142.0910 C   0  0  0  0  0  0  0  0  0  0  0  0
   55.9960   74.8080  143.3290 C   0  0  0  0  0  0  0  0  0  0  0  0
   56.2880   73.7260  142.4310 C   0  0  0  0  0  0  0  0  0  0  0  0
   54.8800   74.3450  144.3820 C   0  0  0  0  0  0  0  0  0  0  0  0
   54.5330   72.9820  144.0750 C   0  0  0  0  0  0  0  0  0  0  0  0
  166.2860   53.3270  144.9820 Cl  0  0  0  0  0  0  0  0  0  0  0  0
  164.3750   57.4430  141.2070 S   0  0  0  0  0  0  0  0  0  0  0  0
  165.7960   55.3820  142.8560 S   0  0  0  0  0  0  0  0  0  0  0  0
  165.3450   58.5070  141.4840 O   0  0  0  0  0  0  0  0  0  0  0  0
  164.5280   56.7160  139.9400 O   0  0  0  0  0  0  0  0  0  0  0  0
  160.5660   58.4010  142.0730 N   0  0  0  0  0  0  0  0  0  0  0  0
  162.1410   56.7170  143.2050 N   0  0  0  0  0  0  0  0  0  0  0  0
  162.9400   58.1610  141.1230 N   0  0  0  0  0  0  0  0  0  0  0  0
  160.1980   59.4160  141.0940 C   0  0  0  0  0  0  0  0  0  0  0  0
  159.2510   60.4480  141.7060 C   0  0  0  0  0  0  0  0  0  0  0  0
  160.6940   60.8420  141.3610 C   0  0  0  0  0  0  0  0  0  0  0  0
  159.9670   59.0350  139.6150 C   0  0  0  0  0  0  0  0  0  0  0  0
  161.8900   57.7920  142.0910 C   0  0  0  0  0  0  0  0  0  0  0  0
  163.5120   55.9960  143.3290 C   0  0  0  0  0  0  0  0  0  0  0  0
  164.5940   56.2880  142.4310 C   0  0  0  0  0  0  0  0  0  0  0  0
  163.9750   54.8800  144.3820 C   0  0  0  0  0  0  0  0  0  0  0  0
  165.3380   54.5330  144.0750 C   0  0  0  0  0  0  0  0  0  0  0  0
  184.9930  166.2860  144.9820 Cl  0  0  0  0  0  0  0  0  0  0  0  0
  180.8770  164.3750  141.2070 S   0  0  0  0  0  0  0  0  0  0  0  0
  182.9380  165.7960  142.8560 S   0  0  0  0  0  0  0  0  0  0  0  0
  179.8130  165.3450  141.4840 O   0  0  0  0  0  0  0  0  0  0  0  0
  181.6040  164.5280  139.9400 O   0  0  0  0  0  0  0  0  0  0  0  0
  179.9190  160.5660  142.0730 N   0  0  0  0  0  0  0  0  0  0  0  0
  181.6030  162.1410  143.2050 N   0  0  0  0  0  0  0  0  0  0  0  0
  180.1590  162.9400  141.1230 N   0  0  0  0  0  0  0  0  0  0  0  0
  178.9040  160.1980  141.0940 C   0  0  0  0  0  0  0  0  0  0  0  0
  177.8720  159.2510  141.7060 C   0  0  0  0  0  0  0  0  0  0  0  0
  177.4780  160.6940  141.3610 C   0  0  0  0  0  0  0  0  0  0  0  0
  179.2850  159.9670  139.6150 C   0  0  0  0  0  0  0  0  0  0  0  0
  180.5280  161.8900  142.0910 C   0  0  0  0  0  0  0  0  0  0  0  0
  182.3240  163.5120  143.3290 C   0  0  0  0  0  0  0  0  0  0  0  0
  182.0320  164.5940  142.4310 C   0  0  0  0  0  0  0  0  0  0  0  0
  183.4400  163.9750  144.3820 C   0  0  0  0  0  0  0  0  0  0  0  0
  183.7870  165.3380  144.0750 C   0  0  0  0  0  0  0  0  0  0  0  0
  2  4  2  0  0  0  0
  2  5  2  0  0  0  0
  2  8  1  0  0  0  0
  6  9  1  0  0  0  0
  9 11  1  0  0  0  0
  9 12  1  0  0  0  0
  9 10  1  0  0  0  0
 10 11  1  0  0  0  0
  6 13  1  0  0  0  0
  7 13  1  0  0  0  0
  8 13  1  0  0  0  0
  7 14  1  0  0  0  0
 14 16  4  0  0  0  0
  2 15  1  0  0  0  0
  3 15  4  0  0  0  0
 14 15  4  0  0  0  0
  1 17  1  0  0  0  0
  3 17  4  0  0  0  0
 16 17  4  0  0  0  0
 19 21  2  0  0  0  0
 19 22  2  0  0  0  0
 19 25  1  0  0  0  0
 23 26  1  0  0  0  0
 26 28  1  0  0  0  0
 26 29  1  0  0  0  0
 26 27  1  0  0  0  0
 27 28  1  0  0  0  0
 23 30  1  0  0  0  0
 24 30  1  0  0  0  0
 25 30  1  0  0  0  0
 24 31  1  0  0  0  0
 31 33  4  0  0  0  0
 19 32  1  0  0  0  0
 20 32  4  0  0  0  0
 31 32  4  0  0  0  0
 18 34  1  0  0  0  0
 20 34  4  0  0  0  0
 33 34  4  0  0  0  0
 36 38  2  0  0  0  0
 36 39  2  0  0  0  0
 36 42  1  0  0  0  0
 40 43  1  0  0  0  0
 43 45  1  0  0  0  0
 43 46  1  0  0  0  0
 43 44  1  0  0  0  0
 44 45  1  0  0  0  0
 40 47  1  0  0  0  0
 41 47  1  0  0  0  0
 42 47  1  0  0  0  0
 41 48  1  0  0  0  0
 48 50  4  0  0  0  0
 36 49  1  0  0  0  0
 37 49  4  0  0  0  0
 48 49  4  0  0  0  0
 35 51  1  0  0  0  0
 37 51  4  0  0  0  0
 50 51  4  0  0  0  0
 53 55  2  0  0  0  0
 53 56  2  0  0  0  0
 53 59  1  0  0  0  0
 57 60  1  0  0  0  0
 60 62  1  0  0  0  0
 60 63  1  0  0  0  0
 60 61  1  0  0  0  0
 61 62  1  0  0  0  0
 57 64  1  0  0  0  0
 58 64  1  0  0  0  0
 59 64  1  0  0  0  0
 58 65  1  0  0  0  0
 65 67  4  0  0  0  0
 53 66  1  0  0  0  0
 54 66  4  0  0  0  0
 65 66  4  0  0  0  0
 52 68  1  0  0  0  0
 54 68  4  0  0  0  0
 67 68  4  0  0  0  0
M  END
$$$$
