8IRN
  PyMOL3.1          3D                             0

 27 29  0  0  0  0  0  0  0  0999 V2000
  107.7770   84.3590   92.4880 N   0  0  0  0  0  0  0  0  0  0  0  0
  108.7040   84.4980   91.5590 C   0  0  0  0  0  0  0  0  0  0  0  0
  109.9430   84.8160   91.8700 N   0  0  0  0  0  0  0  0  0  0  0  0
  110.3340   85.0110   93.1530 C   0  0  0  0  0  0  0  0  0  0  0  0
  109.4050   84.8740   94.1330 C   0  0  0  0  0  0  0  0  0  0  0  0
  108.0730   84.5320   93.7660 C   0  0  0  0  0  0  0  0  0  0  0  0
  110.0280   85.1160   95.3040 N   0  0  0  0  0  0  0  0  0  0  0  0
  111.3090   85.3960   95.0680 C   0  0  0  0  0  0  0  0  0  0  0  0
  106.7010   85.4740   95.6470 C   0  0  0  0  0  0  0  0  0  0  0  0
  111.5130   85.3360   93.7520 N   0  0  0  0  0  0  0  0  0  0  0  0
  105.5300   86.2730   95.0830 C   0  0  0  0  0  0  0  0  0  0  0  0
  107.0380   84.3730   94.7680 N   0  0  0  0  0  0  0  0  0  0  0  0
  104.2760   86.1550   95.6540 C   0  0  0  0  0  0  0  0  0  0  0  0
  103.2150   86.8810   95.1410 C   0  0  0  0  0  0  0  0  0  0  0  0
  103.4100   87.7260   94.0620 C   0  0  0  0  0  0  0  0  0  0  0  0
  104.6660   87.8450   93.4940 C   0  0  0  0  0  0  0  0  0  0  0  0
  105.7270   87.1180   94.0050 C   0  0  0  0  0  0  0  0  0  0  0  0
  108.4410   84.3510   90.5190 H   0  0  0  0  0  0  0  0  0  0  0  0
  112.0560   85.6330   95.8150 H   0  0  0  0  0  0  0  0  0  0  0  0
  106.5550   83.5000   94.8540 H   0  0  0  0  0  0  0  0  0  0  0  0
  104.1240   85.4940   96.4980 H   0  0  0  0  0  0  0  0  0  0  0  0
  102.2320   86.7900   95.5860 H   0  0  0  0  0  0  0  0  0  0  0  0
  102.5790   88.2940   93.6620 H   0  0  0  0  0  0  0  0  0  0  0  0
  104.8180   88.5040   92.6490 H   0  0  0  0  0  0  0  0  0  0  0  0
  106.7100   87.2100   93.5610 H   0  0  0  0  0  0  0  0  0  0  0  0
  107.5600   86.1270   95.7580 H   0  0  0  0  0  0  0  0  0  0  0  0
  106.4200   85.0760   96.6160 H   0  0  0  0  0  0  0  0  0  0  0  0
  1  2  1  0  0  0  0
  2  3  2  0  0  0  0
  3  4  1  0  0  0  0
  4  5  2  0  0  0  0
  1  6  2  0  0  0  0
  5  6  1  0  0  0  0
  5  7  1  0  0  0  0
  7  8  2  0  0  0  0
  4 10  1  0  0  0  0
  8 10  1  0  0  0  0
  9 11  1  0  0  0  0
  6 12  1  0  0  0  0
  9 12  1  0  0  0  0
 11 13  1  0  0  0  0
 13 14  2  0  0  0  0
 14 15  1  0  0  0  0
 15 16  2  0  0  0  0
 11 17  2  0  0  0  0
 16 17  1  0  0  0  0
  2 18  1  0  0  0  0
  8 19  1  0  0  0  0
 12 20  1  0  0  0  0
 13 21  1  0  0  0  0
 14 22  1  0  0  0  0
 15 23  1  0  0  0  0
 16 24  1  0  0  0  0
 17 25  1  0  0  0  0
  9 26  1  0  0  0  0
  9 27  1  0  0  0  0
M  END
$$$$
