7XDF
  PyMOL3.1          3D                             0

 29 32  0  0  0  0  0  0  0  0999 V2000
  146.8560  159.1190  181.7600 O   0  0  0  0  0  0  0  0  0  0  0  0
  146.3560  158.1210  182.6000 C   0  0  0  0  0  0  0  0  0  0  0  0
  145.1290  157.5130  182.3660 C   0  0  0  0  0  0  0  0  0  0  0  0
  144.6740  156.5160  183.2480 C   0  0  0  0  0  0  0  0  0  0  0  0
  143.4340  155.8950  183.0250 C   0  0  0  0  0  0  0  0  0  0  0  0
  142.9850  154.9120  183.8930 C   0  0  0  0  0  0  0  0  0  0  0  0
  143.7560  154.5390  184.9850 C   0  0  0  0  0  0  0  0  0  0  0  0
  144.9790  155.1510  185.2070 C   0  0  0  0  0  0  0  0  0  0  0  0
  145.4350  156.1470  184.3290 C   0  0  0  0  0  0  0  0  0  0  0  0
  146.6740  156.7640  184.5590 C   0  0  0  0  0  0  0  0  0  0  0  0
  147.1200  157.7450  183.6910 C   0  0  0  0  0  0  0  0  0  0  0  0
  148.4600  158.4300  183.9170 C   0  0  0  0  0  0  0  0  0  0  0  0
  148.8550  159.3060  183.1030 O   0  0  0  0  0  0  0  0  0  0  0  0
  149.1650  158.1190  184.9090 O   0  0  0  0  0  0  0  0  0  0  0  0
  144.2560  157.9050  181.1730 C   0  0  0  0  0  0  0  0  0  0  0  0
  145.0240  157.8150  179.8550 C   0  0  0  0  0  0  0  0  0  0  0  0
  145.2770  156.5710  179.2550 C   0  0  0  0  0  0  0  0  0  0  0  0
  144.8270  155.3900  179.8660 C   0  0  0  0  0  0  0  0  0  0  0  0
  145.0820  154.1660  179.2750 C   0  0  0  0  0  0  0  0  0  0  0  0
  145.7780  154.1050  178.0760 C   0  0  0  0  0  0  0  0  0  0  0  0
  146.2230  155.2690  177.4700 C   0  0  0  0  0  0  0  0  0  0  0  0
  145.9660  156.5100  178.0720 C   0  0  0  0  0  0  0  0  0  0  0  0
  146.4180  157.6890  177.4580 C   0  0  0  0  0  0  0  0  0  0  0  0
  146.1640  158.9150  178.0500 C   0  0  0  0  0  0  0  0  0  0  0  0
  146.6560  160.1970  177.3910 C   0  0  0  0  0  0  0  0  0  0  0  0
  147.4410  160.1360  176.4130 O   0  0  0  0  0  0  0  0  0  0  0  0
  146.2800  161.3120  177.8290 O   0  0  0  0  0  0  0  0  0  0  0  0
  145.4640  158.9760  179.2440 C   0  0  0  0  0  0  0  0  0  0  0  0
  145.2110  160.2120  179.8430 O   0  0  0  0  0  0  0  0  0  0  0  0
  1  2  1  0  0  0  0
  2  3  2  0  0  0  0
  3  4  1  0  0  0  0
  4  5  2  0  0  0  0
  5  6  1  0  0  0  0
  6  7  2  0  0  0  0
  7  8  1  0  0  0  0
  4  9  1  0  0  0  0
  8  9  2  0  0  0  0
  9 10  1  0  0  0  0
  2 11  1  0  0  0  0
 10 11  2  0  0  0  0
 11 12  1  0  0  0  0
 12 13  2  0  0  0  0
 12 14  1  0  0  0  0
  3 15  1  0  0  0  0
 15 16  1  0  0  0  0
 16 17  1  0  0  0  0
 17 18  2  0  0  0  0
 18 19  1  0  0  0  0
 19 20  2  0  0  0  0
 20 21  1  0  0  0  0
 17 22  1  0  0  0  0
 21 22  2  0  0  0  0
 22 23  1  0  0  0  0
 23 24  2  0  0  0  0
 24 25  1  0  0  0  0
 25 26  2  0  0  0  0
 25 27  1  0  0  0  0
 16 28  2  0  0  0  0
 24 28  1  0  0  0  0
 28 29  1  0  0  0  0
M  END
$$$$
