7XDF
  PyMOL3.1          3D                             0

 29 32  0  0  0  0  0  0  0  0999 V2000
  146.8540  155.7420  133.1190 O   0  0  0  0  0  0  0  0  0  0  0  0
  146.3540  156.7400  132.2800 C   0  0  0  0  0  0  0  0  0  0  0  0
  145.1270  157.3490  132.5140 C   0  0  0  0  0  0  0  0  0  0  0  0
  144.6720  158.3440  131.6320 C   0  0  0  0  0  0  0  0  0  0  0  0
  143.4320  158.9660  131.8550 C   0  0  0  0  0  0  0  0  0  0  0  0
  142.9830  159.9480  130.9860 C   0  0  0  0  0  0  0  0  0  0  0  0
  143.7550  160.3210  129.8930 C   0  0  0  0  0  0  0  0  0  0  0  0
  144.9770  159.7090  129.6720 C   0  0  0  0  0  0  0  0  0  0  0  0
  145.4330  158.7140  130.5510 C   0  0  0  0  0  0  0  0  0  0  0  0
  146.6720  158.0960  130.3220 C   0  0  0  0  0  0  0  0  0  0  0  0
  147.1180  157.1150  131.1900 C   0  0  0  0  0  0  0  0  0  0  0  0
  148.4580  156.4300  130.9630 C   0  0  0  0  0  0  0  0  0  0  0  0
  149.1630  156.7410  129.9700 O   0  0  0  0  0  0  0  0  0  0  0  0
  148.8530  155.5550  131.7770 O   0  0  0  0  0  0  0  0  0  0  0  0
  144.2550  156.9550  133.7070 C   0  0  0  0  0  0  0  0  0  0  0  0
  145.0240  157.0450  135.0250 C   0  0  0  0  0  0  0  0  0  0  0  0
  145.2760  158.2900  135.6250 C   0  0  0  0  0  0  0  0  0  0  0  0
  144.8260  159.4700  135.0130 C   0  0  0  0  0  0  0  0  0  0  0  0
  145.0820  160.6950  135.6040 C   0  0  0  0  0  0  0  0  0  0  0  0
  145.7770  160.7560  136.8030 C   0  0  0  0  0  0  0  0  0  0  0  0
  146.2220  159.5920  137.4090 C   0  0  0  0  0  0  0  0  0  0  0  0
  145.9650  158.3510  136.8080 C   0  0  0  0  0  0  0  0  0  0  0  0
  146.4170  157.1720  137.4230 C   0  0  0  0  0  0  0  0  0  0  0  0
  146.1640  155.9460  136.8300 C   0  0  0  0  0  0  0  0  0  0  0  0
  146.6550  154.6640  137.4880 C   0  0  0  0  0  0  0  0  0  0  0  0
  146.2790  153.5480  137.0510 O   0  0  0  0  0  0  0  0  0  0  0  0
  147.4400  154.7250  138.4670 O   0  0  0  0  0  0  0  0  0  0  0  0
  145.4630  155.8840  135.6360 C   0  0  0  0  0  0  0  0  0  0  0  0
  145.2100  154.6480  135.0360 O   0  0  0  0  0  0  0  0  0  0  0  0
  1  2  1  0  0  0  0
  2  3  4  0  0  0  0
  2 11  4  0  0  0  0
  3  4  4  0  0  0  0
  3 15  1  0  0  0  0
  4  5  4  0  0  0  0
  4  9  4  0  0  0  0
  5  6  4  0  0  0  0
  6  7  4  0  0  0  0
  7  8  4  0  0  0  0
  8  9  4  0  0  0  0
  9 10  4  0  0  0  0
 10 11  4  0  0  0  0
 11 12  1  0  0  0  0
 12 13  4  0  0  0  0
 12 14  4  0  0  0  0
 15 16  1  0  0  0  0
 16 17  4  0  0  0  0
 16 28  4  0  0  0  0
 17 18  4  0  0  0  0
 17 22  4  0  0  0  0
 18 19  4  0  0  0  0
 19 20  4  0  0  0  0
 20 21  4  0  0  0  0
 21 22  4  0  0  0  0
 22 23  4  0  0  0  0
 23 24  4  0  0  0  0
 24 25  1  0  0  0  0
 24 28  4  0  0  0  0
 25 26  4  0  0  0  0
 25 27  4  0  0  0  0
 28 29  1  0  0  0  0
M  END
$$$$
