7XDF
  PyMOL3.1          3D                             0

 29 32  0  0  0  0  0  0  0  0999 V2000
  168.0230  155.7370  181.7650 O   0  0  0  0  0  0  0  0  0  0  0  0
  168.5240  156.7350  182.6060 C   0  0  0  0  0  0  0  0  0  0  0  0
  169.7500  157.3440  182.3720 C   0  0  0  0  0  0  0  0  0  0  0  0
  170.2050  158.3390  183.2540 C   0  0  0  0  0  0  0  0  0  0  0  0
  171.4450  158.9610  183.0310 C   0  0  0  0  0  0  0  0  0  0  0  0
  171.8940  159.9420  183.9000 C   0  0  0  0  0  0  0  0  0  0  0  0
  171.1220  160.3150  184.9930 C   0  0  0  0  0  0  0  0  0  0  0  0
  169.9000  159.7030  185.2140 C   0  0  0  0  0  0  0  0  0  0  0  0
  169.4440  158.7080  184.3350 C   0  0  0  0  0  0  0  0  0  0  0  0
  168.2050  158.0900  184.5640 C   0  0  0  0  0  0  0  0  0  0  0  0
  167.7600  157.1090  183.6960 C   0  0  0  0  0  0  0  0  0  0  0  0
  166.4190  156.4240  183.9220 C   0  0  0  0  0  0  0  0  0  0  0  0
  166.0250  155.5500  183.1080 O   0  0  0  0  0  0  0  0  0  0  0  0
  165.7140  156.7350  184.9140 O   0  0  0  0  0  0  0  0  0  0  0  0
  170.6240  156.9520  181.1790 C   0  0  0  0  0  0  0  0  0  0  0  0
  169.8550  157.0410  179.8610 C   0  0  0  0  0  0  0  0  0  0  0  0
  169.6030  158.2860  179.2610 C   0  0  0  0  0  0  0  0  0  0  0  0
  170.0530  159.4670  179.8730 C   0  0  0  0  0  0  0  0  0  0  0  0
  169.7970  160.6910  179.2830 C   0  0  0  0  0  0  0  0  0  0  0  0
  169.1020  160.7520  178.0840 C   0  0  0  0  0  0  0  0  0  0  0  0
  168.6570  159.5880  177.4770 C   0  0  0  0  0  0  0  0  0  0  0  0
  168.9140  158.3470  178.0780 C   0  0  0  0  0  0  0  0  0  0  0  0
  168.4620  157.1680  177.4630 C   0  0  0  0  0  0  0  0  0  0  0  0
  168.7150  155.9420  178.0550 C   0  0  0  0  0  0  0  0  0  0  0  0
  168.2250  154.6600  177.3960 C   0  0  0  0  0  0  0  0  0  0  0  0
  167.4390  154.7210  176.4180 O   0  0  0  0  0  0  0  0  0  0  0  0
  168.6000  153.5440  177.8340 O   0  0  0  0  0  0  0  0  0  0  0  0
  169.4160  155.8810  179.2490 C   0  0  0  0  0  0  0  0  0  0  0  0
  169.6680  154.6440  179.8490 O   0  0  0  0  0  0  0  0  0  0  0  0
  1  2  1  0  0  0  0
  2  3  4  0  0  0  0
  2 11  4  0  0  0  0
  3  4  4  0  0  0  0
  3 15  1  0  0  0  0
  4  5  4  0  0  0  0
  4  9  4  0  0  0  0
  5  6  4  0  0  0  0
  6  7  4  0  0  0  0
  7  8  4  0  0  0  0
  8  9  4  0  0  0  0
  9 10  4  0  0  0  0
 10 11  4  0  0  0  0
 11 12  1  0  0  0  0
 12 13  4  0  0  0  0
 12 14  4  0  0  0  0
 15 16  1  0  0  0  0
 16 17  4  0  0  0  0
 16 28  4  0  0  0  0
 17 18  4  0  0  0  0
 17 22  4  0  0  0  0
 18 19  4  0  0  0  0
 19 20  4  0  0  0  0
 20 21  4  0  0  0  0
 21 22  4  0  0  0  0
 22 23  4  0  0  0  0
 23 24  4  0  0  0  0
 24 25  1  0  0  0  0
 24 28  4  0  0  0  0
 25 26  4  0  0  0  0
 25 27  4  0  0  0  0
 28 29  1  0  0  0  0
M  END
$$$$
