8CY4
  PyMOL3.1          3D                             0

 29 32  0  0  0  0  0  0  0  0999 V2000
  -32.1896    0.7899   13.8632 N   0  0  0  0  0  0  0  0  0  0  0  0
  -35.1553   -0.9720   15.2023 C   0  0  0  0  0  0  0  0  0  0  0  0
  -36.0235   -0.2709   16.0854 O   0  0  0  0  0  0  0  0  0  0  0  0
  -34.5465   -0.0462   14.1371 C   0  0  0  0  0  0  0  0  0  0  0  0
  -30.7881    0.7733   12.1038 N   0  0  0  0  0  0  0  0  0  0  0  0
  -35.3504    1.1078   13.9294 O   0  0  0  0  0  0  0  0  0  0  0  0
  -33.9342   -1.5163   15.9579 C   0  0  0  0  0  0  0  0  0  0  0  0
  -31.3064    2.7139   15.0580 N   0  0  0  0  0  0  0  0  0  0  0  0
  -33.7604   -3.4560   14.5056 O   0  0  0  0  0  0  0  0  0  0  0  0
  -33.7251   -3.0118   15.8566 C   0  0  0  0  0  0  0  0  0  0  0  0
  -29.4107    3.7024   13.9428 N   0  0  0  0  0  0  0  0  0  0  0  0
  -32.7775   -0.8255   15.4352 O   0  0  0  0  0  0  0  0  0  0  0  0
  -33.2269    0.3451   14.7883 C   0  0  0  0  0  0  0  0  0  0  0  0
  -28.4540    2.8394   12.0295 N   0  0  0  0  0  0  0  0  0  0  0  0
  -31.5322    2.6649    3.8233 O   0  0  0  0  0  0  0  0  0  0  0  0
  -31.8211    0.2077   12.6795 C   0  0  0  0  0  0  0  0  0  0  0  0
  -30.4561    1.8067   12.9668 C   0  0  0  0  0  0  0  0  0  0  0  0
  -31.3197    1.8379   14.0494 C   0  0  0  0  0  0  0  0  0  0  0  0
  -30.3240    3.6081   14.9145 C   0  0  0  0  0  0  0  0  0  0  0  0
  -29.4404    2.7978   12.9465 C   0  0  0  0  0  0  0  0  0  0  0  0
  -28.2700    1.8734   10.9591 C   0  0  0  0  0  0  0  0  0  0  0  0
  -29.0664    2.2457    9.7278 C   0  0  0  0  0  0  0  0  0  0  0  0
  -29.1762    1.0966    8.7310 C   0  0  0  0  0  0  0  0  0  0  0  0
  -29.8025    1.5013    7.4192 C   0  0  0  0  0  0  0  0  0  0  0  0
  -29.0546    2.1445    6.4443 C   0  0  0  0  0  0  0  0  0  0  0  0
  -29.6224    2.5289    5.2427 C   0  0  0  0  0  0  0  0  0  0  0  0
  -30.9632    2.2727    4.9996 C   0  0  0  0  0  0  0  0  0  0  0  0
  -31.7235    1.6266    5.9628 C   0  0  0  0  0  0  0  0  0  0  0  0
  -31.1413    1.2472    7.1596 C   0  0  0  0  0  0  0  0  0  0  0  0
  2  3  1  0  0  0  0
  2  4  1  0  0  0  0
  4  6  1  0  0  0  0
  2  7  1  0  0  0  0
  7 10  1  0  0  0  0
  9 10  1  0  0  0  0
  7 12  1  0  0  0  0
  1 13  1  0  0  0  0
  4 13  1  0  0  0  0
 12 13  1  0  0  0  0
  1 16  1  0  0  0  0
  5 16  2  0  0  0  0
  5 17  1  0  0  0  0
  1 18  1  0  0  0  0
  8 18  2  0  0  0  0
 17 18  1  0  0  0  0
  8 19  1  0  0  0  0
 11 19  2  0  0  0  0
 11 20  1  0  0  0  0
 14 20  1  0  0  0  0
 17 20  2  0  0  0  0
 14 21  1  0  0  0  0
 21 22  1  0  0  0  0
 22 23  1  0  0  0  0
 23 24  1  0  0  0  0
 24 25  2  0  0  0  0
 25 26  1  0  0  0  0
 15 27  1  0  0  0  0
 26 27  2  0  0  0  0
 27 28  1  0  0  0  0
 24 29  1  0  0  0  0
 28 29  2  0  0  0  0
M  END
$$$$
