8CY4
  PyMOL3.1          3D                             0

 29 32  0  0  0  0  0  0  0  0999 V2000
   -9.6502   11.3853  -37.1198 N   0  0  0  0  0  0  0  0  0  0  0  0
   -6.6287   12.5628  -38.8801 C   0  0  0  0  0  0  0  0  0  0  0  0
   -6.8957   13.5317  -39.8881 O   0  0  0  0  0  0  0  0  0  0  0  0
   -7.5899   12.7095  -37.6962 C   0  0  0  0  0  0  0  0  0  0  0  0
  -10.3044   10.4302  -35.1909 N   0  0  0  0  0  0  0  0  0  0  0  0
   -7.9905   14.0625  -37.5196 O   0  0  0  0  0  0  0  0  0  0  0  0
   -6.9174   11.1465  -39.3924 C   0  0  0  0  0  0  0  0  0  0  0  0
  -11.8258   11.7936  -38.1205 N   0  0  0  0  0  0  0  0  0  0  0  0
   -5.5855   10.1021  -37.6588 O   0  0  0  0  0  0  0  0  0  0  0  0
   -5.8658   10.1154  -39.0545 C   0  0  0  0  0  0  0  0  0  0  0  0
  -13.6397   11.0445  -36.7233 N   0  0  0  0  0  0  0  0  0  0  0  0
   -8.1838   10.7498  -38.8177 O   0  0  0  0  0  0  0  0  0  0  0  0
   -8.7648   11.8662  -38.1748 C   0  0  0  0  0  0  0  0  0  0  0  0
  -13.3487    9.9214  -34.7323 N   0  0  0  0  0  0  0  0  0  0  0  0
  -10.1544   13.0660  -27.2094 O   0  0  0  0  0  0  0  0  0  0  0  0
   -9.2917   10.8316  -35.9189 C   0  0  0  0  0  0  0  0  0  0  0  0
  -11.4135   10.7451  -35.9672 C   0  0  0  0  0  0  0  0  0  0  0  0
  -11.0213   11.3425  -37.1529 C   0  0  0  0  0  0  0  0  0  0  0  0
  -13.1111   11.6066  -37.8137 C   0  0  0  0  0  0  0  0  0  0  0  0
  -12.8072   10.5832  -35.7727 C   0  0  0  0  0  0  0  0  0  0  0  0
  -12.5958    9.2551  -33.6822 C   0  0  0  0  0  0  0  0  0  0  0  0
  -12.3044   10.1889  -32.5298 C   0  0  0  0  0  0  0  0  0  0  0  0
  -11.1832    9.6779  -31.6320 C   0  0  0  0  0  0  0  0  0  0  0  0
  -10.9047   10.5764  -30.4518 C   0  0  0  0  0  0  0  0  0  0  0  0
  -11.7375   10.5701  -29.3418 C   0  0  0  0  0  0  0  0  0  0  0  0
  -11.4923   11.3938  -28.2571 C   0  0  0  0  0  0  0  0  0  0  0  0
  -10.3975   12.2449  -28.2705 C   0  0  0  0  0  0  0  0  0  0  0  0
   -9.5547   12.2618  -29.3722 C   0  0  0  0  0  0  0  0  0  0  0  0
   -9.8123   11.4321  -30.4494 C   0  0  0  0  0  0  0  0  0  0  0  0
  2  3  1  0  0  0  0
  2  4  1  0  0  0  0
  4  6  1  0  0  0  0
  2  7  1  0  0  0  0
  7 10  1  0  0  0  0
  9 10  1  0  0  0  0
  7 12  1  0  0  0  0
  1 13  1  0  0  0  0
  4 13  1  0  0  0  0
 12 13  1  0  0  0  0
  1 16  1  0  0  0  0
  5 16  2  0  0  0  0
  5 17  1  0  0  0  0
  1 18  1  0  0  0  0
  8 18  2  0  0  0  0
 17 18  1  0  0  0  0
  8 19  1  0  0  0  0
 11 19  2  0  0  0  0
 11 20  1  0  0  0  0
 14 20  1  0  0  0  0
 17 20  2  0  0  0  0
 14 21  1  0  0  0  0
 21 22  1  0  0  0  0
 22 23  1  0  0  0  0
 23 24  1  0  0  0  0
 24 25  2  0  0  0  0
 25 26  1  0  0  0  0
 15 27  1  0  0  0  0
 26 27  2  0  0  0  0
 27 28  1  0  0  0  0
 24 29  1  0  0  0  0
 28 29  2  0  0  0  0
M  END
$$$$
