8SHJ
  PyMOL3.1          3D                             0

 26 29  0  0  0  0  0  0  0  0999 V2000
   97.7290    3.5670   53.8450 N   0  0  0  0  0  0  0  0  0  0  0  0
   96.9810    7.5010   57.9150 C   0  0  0  0  0  0  0  0  0  0  0  0
   97.4930    8.6080   57.7410 O   0  0  0  0  0  0  0  0  0  0  0  0
   91.6050   12.1270   57.9010 Cl  0  0  0  0  0  0  0  0  0  0  0  0
   97.2210    6.3820   56.9460 C   0  0  0  0  0  0  0  0  0  0  0  0
   96.1460    7.2560   58.9490 N   0  0  0  0  0  0  0  0  0  0  0  0
   96.4620    2.3180   51.3790 O   0  0  0  0  0  0  0  0  0  0  0  0
   98.0710    6.6430   55.8730 C   0  0  0  0  0  0  0  0  0  0  0  0
   96.5150    8.4390   61.9710 O   0  0  0  0  0  0  0  0  0  0  0  0
   98.2310    5.7210   54.8530 C   0  0  0  0  0  0  0  0  0  0  0  0
   97.5560    4.4970   54.8850 C   0  0  0  0  0  0  0  0  0  0  0  0
   98.6810    3.7450   52.7410 C   0  0  0  0  0  0  0  0  0  0  0  0
   98.7380    2.3700   52.0910 C   0  0  0  0  0  0  0  0  0  0  0  0
   97.3700    1.7900   52.3500 C   0  0  0  0  0  0  0  0  0  0  0  0
   97.0290    2.2850   53.7540 C   0  0  0  0  0  0  0  0  0  0  0  0
   96.7160    4.2240   55.9700 C   0  0  0  0  0  0  0  0  0  0  0  0
   96.5600    5.1530   56.9910 C   0  0  0  0  0  0  0  0  0  0  0  0
   95.8020    8.2720   59.9570 C   0  0  0  0  0  0  0  0  0  0  0  0
   94.7800    9.2820   59.4140 C   0  0  0  0  0  0  0  0  0  0  0  0
   94.2220    9.1260   58.1470 C   0  0  0  0  0  0  0  0  0  0  0  0
   93.2730   10.0140   57.6640 C   0  0  0  0  0  0  0  0  0  0  0  0
   92.8740   11.0690   58.4590 C   0  0  0  0  0  0  0  0  0  0  0  0
   93.4190   11.2670   59.7110 C   0  0  0  0  0  0  0  0  0  0  0  0
   94.3630   10.3690   60.1840 C   0  0  0  0  0  0  0  0  0  0  0  0
   97.0230    8.8730   60.6820 C   0  0  0  0  0  0  0  0  0  0  0  0
   95.4880    7.6390   61.3270 C   0  0  0  0  0  0  0  0  0  0  0  0
  2  3  2  0  0  0  0
  2  5  1  0  0  0  0
  2  6  1  0  0  0  0
  5  8  1  0  0  0  0
  8 10  2  0  0  0  0
  1 11  1  0  0  0  0
 10 11  1  0  0  0  0
  1 12  1  0  0  0  0
 12 13  1  0  0  0  0
  7 14  1  0  0  0  0
 13 14  1  0  0  0  0
  1 15  1  0  0  0  0
 14 15  1  0  0  0  0
 11 16  2  0  0  0  0
  5 17  2  0  0  0  0
 16 17  1  0  0  0  0
  6 18  1  0  0  0  0
 18 19  1  0  0  0  0
 19 20  1  0  0  0  0
 20 21  2  0  0  0  0
  4 22  1  0  0  0  0
 21 22  1  0  0  0  0
 22 23  2  0  0  0  0
 19 24  2  0  0  0  0
 23 24  1  0  0  0  0
  9 25  1  0  0  0  0
 18 25  1  0  0  0  0
  9 26  1  0  0  0  0
 18 26  1  0  0  0  0
M  END
$$$$
