8SHJ
  PyMOL3.1          3D                             0

 26 29  0  0  0  0  0  0  0  0999 V2000
   97.9590   57.1380   11.9660 N   0  0  0  0  0  0  0  0  0  0  0  0
   97.2010   53.1450    7.9520 C   0  0  0  0  0  0  0  0  0  0  0  0
   97.7530   52.0560    8.1070 O   0  0  0  0  0  0  0  0  0  0  0  0
   91.8530   48.4730    7.9410 Cl  0  0  0  0  0  0  0  0  0  0  0  0
   97.4430   54.2710    8.9100 C   0  0  0  0  0  0  0  0  0  0  0  0
   96.3380   53.3720    6.9350 N   0  0  0  0  0  0  0  0  0  0  0  0
   96.4280   58.0790   14.3540 O   0  0  0  0  0  0  0  0  0  0  0  0
   98.3350   54.0460    9.9590 C   0  0  0  0  0  0  0  0  0  0  0  0
   96.5840   52.1260    3.8710 O   0  0  0  0  0  0  0  0  0  0  0  0
   98.5190   54.9960   10.9510 C   0  0  0  0  0  0  0  0  0  0  0  0
   97.8150   56.2050   10.9200 C   0  0  0  0  0  0  0  0  0  0  0  0
   98.9080   56.9830   13.0760 C   0  0  0  0  0  0  0  0  0  0  0  0
   98.7690   58.2800   13.8660 C   0  0  0  0  0  0  0  0  0  0  0  0
   97.3760   58.7690   13.5350 C   0  0  0  0  0  0  0  0  0  0  0  0
   97.2010   58.3810   12.0720 C   0  0  0  0  0  0  0  0  0  0  0  0
   96.9420   56.4440    9.8500 C   0  0  0  0  0  0  0  0  0  0  0  0
   96.7670   55.4910    8.8560 C   0  0  0  0  0  0  0  0  0  0  0  0
   96.0020   52.3720    5.9160 C   0  0  0  0  0  0  0  0  0  0  0  0
   94.9990   51.3500    6.4650 C   0  0  0  0  0  0  0  0  0  0  0  0
   94.6060   50.2580    5.6950 C   0  0  0  0  0  0  0  0  0  0  0  0
   93.6720   49.3490    6.1610 C   0  0  0  0  0  0  0  0  0  0  0  0
   93.1070   49.5470    7.3990 C   0  0  0  0  0  0  0  0  0  0  0  0
   93.4760   50.6120    8.1940 C   0  0  0  0  0  0  0  0  0  0  0  0
   94.4240   51.5070    7.7240 C   0  0  0  0  0  0  0  0  0  0  0  0
   97.1930   51.7730    5.1390 C   0  0  0  0  0  0  0  0  0  0  0  0
   95.6300   52.9820    4.5500 C   0  0  0  0  0  0  0  0  0  0  0  0
  2  3  2  0  0  0  0
  2  5  1  0  0  0  0
  2  6  1  0  0  0  0
  5  8  1  0  0  0  0
  8 10  2  0  0  0  0
  1 11  1  0  0  0  0
 10 11  1  0  0  0  0
  1 12  1  0  0  0  0
 12 13  1  0  0  0  0
  7 14  1  0  0  0  0
 13 14  1  0  0  0  0
  1 15  1  0  0  0  0
 14 15  1  0  0  0  0
 11 16  2  0  0  0  0
  5 17  2  0  0  0  0
 16 17  1  0  0  0  0
  6 18  1  0  0  0  0
 18 19  1  0  0  0  0
 19 20  1  0  0  0  0
 20 21  2  0  0  0  0
  4 22  1  0  0  0  0
 21 22  1  0  0  0  0
 22 23  2  0  0  0  0
 19 24  2  0  0  0  0
 23 24  1  0  0  0  0
  9 25  1  0  0  0  0
 18 25  1  0  0  0  0
  9 26  1  0  0  0  0
 18 26  1  0  0  0  0
M  END
$$$$
