8SHJ
  PyMOL3.1          3D                             0

 26 29  0  0  0  0  0  0  0  0999 V2000
   57.1980   41.4850   23.9690 N   0  0  0  0  0  0  0  0  0  0  0  0
   57.7460   36.6810   20.9070 C   0  0  0  0  0  0  0  0  0  0  0  0
   58.6450   35.8740   21.1360 O   0  0  0  0  0  0  0  0  0  0  0  0
   53.2680   31.2990   22.3170 Cl  0  0  0  0  0  0  0  0  0  0  0  0
   57.6690   37.9810   21.6510 C   0  0  0  0  0  0  0  0  0  0  0  0
   56.7900   36.4550   19.9760 N   0  0  0  0  0  0  0  0  0  0  0  0
   58.6770   44.0280   24.4560 O   0  0  0  0  0  0  0  0  0  0  0  0
   58.4610   38.2000   22.7800 C   0  0  0  0  0  0  0  0  0  0  0  0
   57.1590   34.6510   17.1520 O   0  0  0  0  0  0  0  0  0  0  0  0
   58.3290   39.3610   23.5260 C   0  0  0  0  0  0  0  0  0  0  0  0
   57.3940   40.3390   23.1650 C   0  0  0  0  0  0  0  0  0  0  0  0
   56.1570   42.4930   23.7280 C   0  0  0  0  0  0  0  0  0  0  0  0
   56.3440   43.5040   24.8600 C   0  0  0  0  0  0  0  0  0  0  0  0
   57.7780   43.3050   25.3090 C   0  0  0  0  0  0  0  0  0  0  0  0
   57.9850   41.8050   25.1560 C   0  0  0  0  0  0  0  0  0  0  0  0
   56.6180   40.1300   22.0200 C   0  0  0  0  0  0  0  0  0  0  0  0
   56.7580   38.9690   21.2730 C   0  0  0  0  0  0  0  0  0  0  0  0
   56.6390   35.2070   19.1540 C   0  0  0  0  0  0  0  0  0  0  0  0
   55.8130   34.2000   19.9640 C   0  0  0  0  0  0  0  0  0  0  0  0
   55.2460   34.5690   21.1820 C   0  0  0  0  0  0  0  0  0  0  0  0
   54.4770   33.6810   21.9140 C   0  0  0  0  0  0  0  0  0  0  0  0
   54.2730   32.4060   21.4240 C   0  0  0  0  0  0  0  0  0  0  0  0
   54.8270   32.0020   20.2240 C   0  0  0  0  0  0  0  0  0  0  0  0
   55.5910   32.9030   19.4980 C   0  0  0  0  0  0  0  0  0  0  0  0
   57.8720   34.6460   18.4150 C   0  0  0  0  0  0  0  0  0  0  0  0
   56.1160   35.4770   17.7280 C   0  0  0  0  0  0  0  0  0  0  0  0
  2  3  2  0  0  0  0
  2  5  1  0  0  0  0
  2  6  1  0  0  0  0
  5  8  1  0  0  0  0
  8 10  2  0  0  0  0
  1 11  1  0  0  0  0
 10 11  1  0  0  0  0
  1 12  1  0  0  0  0
 12 13  1  0  0  0  0
  7 14  1  0  0  0  0
 13 14  1  0  0  0  0
  1 15  1  0  0  0  0
 14 15  1  0  0  0  0
 11 16  2  0  0  0  0
  5 17  2  0  0  0  0
 16 17  1  0  0  0  0
  6 18  1  0  0  0  0
 18 19  1  0  0  0  0
 19 20  1  0  0  0  0
 20 21  2  0  0  0  0
  4 22  1  0  0  0  0
 21 22  1  0  0  0  0
 22 23  2  0  0  0  0
 19 24  2  0  0  0  0
 23 24  1  0  0  0  0
  9 25  1  0  0  0  0
 18 25  1  0  0  0  0
  9 26  1  0  0  0  0
 18 26  1  0  0  0  0
M  END
$$$$
