7M94
  PyMOL3.1          3D                             0

 27 30  0  0  0  0  0  0  0  0999 V2000
   32.7728   30.9021   17.3788 N   0  0  0  0  0  0  0  0  0  0  0  0
   34.4038   32.1114   18.7797 C   0  0  0  0  0  0  0  0  0  0  0  0
   36.3386   36.3122   19.0443 O   0  0  0  0  0  0  0  0  0  0  0  0
   34.1790   30.9715   17.7861 C   0  0  0  0  0  0  0  0  0  0  0  0
   34.0993   35.9488   18.7678 N   0  0  0  0  0  0  0  0  0  0  0  0
   34.2949   28.1960   16.8701 O   0  0  0  0  0  0  0  0  0  0  0  0
   32.4173   32.1554   16.7107 C   0  0  0  0  0  0  0  0  0  0  0  0
   32.5595   33.3359   17.6627 C   0  0  0  0  0  0  0  0  0  0  0  0
   33.9722   33.4644   18.2187 C   0  0  0  0  0  0  0  0  0  0  0  0
   34.0587   34.5729   19.2744 C   0  0  0  0  0  0  0  0  0  0  0  0
   32.9120   36.6567   18.2827 C   0  0  0  0  0  0  0  0  0  0  0  0
   33.4736   37.9919   17.8917 C   0  0  0  0  0  0  0  0  0  0  0  0
   32.8561   39.1167   17.3603 C   0  0  0  0  0  0  0  0  0  0  0  0
   33.6051   40.2465   17.0778 C   0  0  0  0  0  0  0  0  0  0  0  0
   34.9665   40.2588   17.3243 C   0  0  0  0  0  0  0  0  0  0  0  0
   35.5943   39.1415   17.8560 C   0  0  0  0  0  0  0  0  0  0  0  0
   34.8362   38.0056   18.1387 C   0  0  0  0  0  0  0  0  0  0  0  0
   35.2321   36.6908   18.7028 C   0  0  0  0  0  0  0  0  0  0  0  0
   32.5048   29.7504   16.5142 C   0  0  0  0  0  0  0  0  0  0  0  0
   33.2285   28.4219   16.3263 C   0  0  0  0  0  0  0  0  0  0  0  0
   32.5800   27.4019   15.4544 C   0  0  0  0  0  0  0  0  0  0  0  0
   33.1597   26.1570   15.2261 C   0  0  0  0  0  0  0  0  0  0  0  0
   32.5200   25.2110   14.4450 C   0  0  0  0  0  0  0  0  0  0  0  0
   31.3064   25.5322   13.9006 C   0  0  0  0  0  0  0  0  0  0  0  0
   30.7024   26.7430   14.0934 C   0  0  0  0  0  0  0  0  0  0  0  0
   31.3492   27.6821   14.8748 C   0  0  0  0  0  0  0  0  0  0  0  0
   30.6772   24.6098   13.1242 F   0  0  0  0  0  0  0  0  0  0  0  0
  1  4  1  0  0  0  0
  2  4  1  0  0  0  0
  1  7  1  0  0  0  0
  7  8  1  0  0  0  0
  2  9  1  0  0  0  0
  8  9  1  0  0  0  0
  5 10  1  0  0  0  0
  9 10  1  0  0  0  0
  5 11  1  0  0  0  0
 11 12  1  0  0  0  0
 12 13  1  0  0  0  0
 13 14  2  0  0  0  0
 14 15  1  0  0  0  0
 15 16  2  0  0  0  0
 12 17  2  0  0  0  0
 16 17  1  0  0  0  0
  3 18  2  0  0  0  0
  5 18  1  0  0  0  0
 17 18  1  0  0  0  0
  1 19  1  0  0  0  0
  6 20  2  0  0  0  0
 19 20  1  0  0  0  0
 20 21  1  0  0  0  0
 21 22  1  0  0  0  0
 22 23  2  0  0  0  0
 23 24  1  0  0  0  0
 24 25  2  0  0  0  0
 21 26  2  0  0  0  0
 25 26  1  0  0  0  0
 24 27  1  0  0  0  0
M  END
$$$$
