7M94
  PyMOL3.1          3D                             0

108120  0  0  0  0  0  0  0  0999 V2000
    2.3053  -22.3561   33.2894 N   0  0  0  0  0  0  0  0  0  0  0  0
    0.0196  -23.0041   32.7546 C   0  0  0  0  0  0  0  0  0  0  0  0
   -0.0748  -26.9780   29.3979 O   0  0  0  0  0  0  0  0  0  0  0  0
    0.9093  -22.1397   33.6296 C   0  0  0  0  0  0  0  0  0  0  0  0
   -0.5447  -26.5523   31.5905 N   0  0  0  0  0  0  0  0  0  0  0  0
    2.6309  -19.8034   32.1865 O   0  0  0  0  0  0  0  0  0  0  0  0
    2.6492  -23.7212   33.6681 C   0  0  0  0  0  0  0  0  0  0  0  0
    1.8622  -24.7144   32.8141 C   0  0  0  0  0  0  0  0  0  0  0  0
    0.3461  -24.4957   32.7966 C   0  0  0  0  0  0  0  0  0  0  0  0
   -0.2587  -25.1189   31.5605 C   0  0  0  0  0  0  0  0  0  0  0  0
   -0.9766  -27.2685   32.7924 C   0  0  0  0  0  0  0  0  0  0  0  0
   -1.1782  -28.6635   32.2759 C   0  0  0  0  0  0  0  0  0  0  0  0
   -1.6408  -29.8091   32.9079 C   0  0  0  0  0  0  0  0  0  0  0  0
   -1.7587  -30.9899   32.1935 C   0  0  0  0  0  0  0  0  0  0  0  0
   -1.4116  -31.0321   30.8540 C   0  0  0  0  0  0  0  0  0  0  0  0
   -0.9444  -29.8948   30.2134 C   0  0  0  0  0  0  0  0  0  0  0  0
   -0.8352  -28.7066   30.9350 C   0  0  0  0  0  0  0  0  0  0  0  0
   -0.4330  -27.3486   30.5003 C   0  0  0  0  0  0  0  0  0  0  0  0
    3.1752  -21.3566   33.9072 C   0  0  0  0  0  0  0  0  0  0  0  0
    3.2845  -20.0181   33.1914 C   0  0  0  0  0  0  0  0  0  0  0  0
    4.2043  -18.9804   33.7369 C   0  0  0  0  0  0  0  0  0  0  0  0
    4.2993  -17.7551   33.0877 C   0  0  0  0  0  0  0  0  0  0  0  0
    5.1883  -16.7891   33.5214 C   0  0  0  0  0  0  0  0  0  0  0  0
    5.9708  -17.0686   34.6065 C   0  0  0  0  0  0  0  0  0  0  0  0
    5.9009  -18.2533   35.2890 C   0  0  0  0  0  0  0  0  0  0  0  0
    5.0076  -19.2135   34.8470 C   0  0  0  0  0  0  0  0  0  0  0  0
    6.8747  -16.1363   35.0116 F   0  0  0  0  0  0  0  0  0  0  0  0
    1.5758    6.8357   32.9244 N   0  0  0  0  0  0  0  0  0  0  0  0
    0.6351    7.5509   30.7873 C   0  0  0  0  0  0  0  0  0  0  0  0
   -2.4040   11.6985   31.1906 O   0  0  0  0  0  0  0  0  0  0  0  0
    1.5873    6.5985   31.4879 C   0  0  0  0  0  0  0  0  0  0  0  0
   -0.2975   11.2129   30.4576 N   0  0  0  0  0  0  0  0  0  0  0  0
    0.5366    4.2327   33.4097 O   0  0  0  0  0  0  0  0  0  0  0  0
    2.1185    8.1697   33.1646 C   0  0  0  0  0  0  0  0  0  0  0  0
    1.2078    9.2331   32.5533 C   0  0  0  0  0  0  0  0  0  0  0  0
    0.8964    9.0275   31.0708 C   0  0  0  0  0  0  0  0  0  0  0  0
   -0.3604    9.7716   30.6924 C   0  0  0  0  0  0  0  0  0  0  0  0
    0.8788   11.9033   29.9255 C   0  0  0  0  0  0  0  0  0  0  0  0
    0.3985   13.3224   29.8307 C   0  0  0  0  0  0  0  0  0  0  0  0
    1.0218   14.4630   29.3444 C   0  0  0  0  0  0  0  0  0  0  0  0
    0.3451   15.6716   29.3453 C   0  0  0  0  0  0  0  0  0  0  0  0
   -0.9478   15.7467   29.8339 C   0  0  0  0  0  0  0  0  0  0  0  0
   -1.5791   14.6149   30.3273 C   0  0  0  0  0  0  0  0  0  0  0  0
   -0.8958   13.3991   30.3178 C   0  0  0  0  0  0  0  0  0  0  0  0
   -1.3364   12.0425   30.7187 C   0  0  0  0  0  0  0  0  0  0  0  0
    2.3160    5.7980   33.6393 C   0  0  0  0  0  0  0  0  0  0  0  0
    1.6519    4.4475   33.8493 C   0  0  0  0  0  0  0  0  0  0  0  0
    2.3908    3.3980   34.6061 C   0  0  0  0  0  0  0  0  0  0  0  0
    1.8026    2.1542   34.8064 C   0  0  0  0  0  0  0  0  0  0  0  0
    2.4487    1.1727   35.5354 C   0  0  0  0  0  0  0  0  0  0  0  0
    3.6827    1.4553   36.0521 C   0  0  0  0  0  0  0  0  0  0  0  0
    4.3036    2.6626   35.8778 C   0  0  0  0  0  0  0  0  0  0  0  0
    3.6490    3.6378   35.1463 C   0  0  0  0  0  0  0  0  0  0  0  0
    4.3239    0.4912   36.7664 F   0  0  0  0  0  0  0  0  0  0  0  0
   32.7049    2.4890   16.5865 N   0  0  0  0  0  0  0  0  0  0  0  0
   35.0588    1.9432   16.9531 C   0  0  0  0  0  0  0  0  0  0  0  0
   35.8779   -2.1754   19.9721 O   0  0  0  0  0  0  0  0  0  0  0  0
   34.0713    2.8173   16.2002 C   0  0  0  0  0  0  0  0  0  0  0  0
   35.8424   -1.6847   17.7437 N   0  0  0  0  0  0  0  0  0  0  0  0
   32.4302    5.1933   17.5186 O   0  0  0  0  0  0  0  0  0  0  0  0
   32.4270    1.1228   16.1480 C   0  0  0  0  0  0  0  0  0  0  0  0
   33.3280    0.1333   16.8854 C   0  0  0  0  0  0  0  0  0  0  0  0
   34.8215    0.4453   16.7836 C   0  0  0  0  0  0  0  0  0  0  0  0
   35.5790   -0.2520   17.8856 C   0  0  0  0  0  0  0  0  0  0  0  0
   35.9922   -2.3593   16.4539 C   0  0  0  0  0  0  0  0  0  0  0  0
   36.2977   -3.7683   16.8704 C   0  0  0  0  0  0  0  0  0  0  0  0
   36.5987   -4.8953   16.1158 C   0  0  0  0  0  0  0  0  0  0  0  0
   36.8540   -6.1005   16.7487 C   0  0  0  0  0  0  0  0  0  0  0  0
   36.8056   -6.1877   18.1295 C   0  0  0  0  0  0  0  0  0  0  0  0
   36.5058   -5.0694   18.8935 C   0  0  0  0  0  0  0  0  0  0  0  0
   36.2578   -3.8579   18.2517 C   0  0  0  0  0  0  0  0  0  0  0  0
   35.9719   -2.5104   18.8070 C   0  0  0  0  0  0  0  0  0  0  0  0
   31.7520    3.4521   16.0387 C   0  0  0  0  0  0  0  0  0  0  0  0
   31.6616    4.8455   16.6400 C   0  0  0  0  0  0  0  0  0  0  0  0
   30.6025    5.7670   16.1418 C   0  0  0  0  0  0  0  0  0  0  0  0
   30.4834    7.0403   16.6871 C   0  0  0  0  0  0  0  0  0  0  0  0
   29.4739    7.8934   16.2820 C   0  0  0  0  0  0  0  0  0  0  0  0
   28.5973    7.4541   15.3302 C   0  0  0  0  0  0  0  0  0  0  0  0
   28.6839    6.2166   14.7532 C   0  0  0  0  0  0  0  0  0  0  0  0
   29.6972    5.3701   15.1648 C   0  0  0  0  0  0  0  0  0  0  0  0
   27.5828    8.2762   14.9543 F   0  0  0  0  0  0  0  0  0  0  0  0
   32.7728   30.9021   17.3788 N   0  0  0  0  0  0  0  0  0  0  0  0
   34.4038   32.1114   18.7797 C   0  0  0  0  0  0  0  0  0  0  0  0
   36.3386   36.3122   19.0443 O   0  0  0  0  0  0  0  0  0  0  0  0
   34.1790   30.9715   17.7861 C   0  0  0  0  0  0  0  0  0  0  0  0
   34.0993   35.9488   18.7678 N   0  0  0  0  0  0  0  0  0  0  0  0
   34.2949   28.1960   16.8701 O   0  0  0  0  0  0  0  0  0  0  0  0
   32.4173   32.1554   16.7107 C   0  0  0  0  0  0  0  0  0  0  0  0
   32.5595   33.3359   17.6627 C   0  0  0  0  0  0  0  0  0  0  0  0
   33.9722   33.4644   18.2187 C   0  0  0  0  0  0  0  0  0  0  0  0
   34.0587   34.5729   19.2744 C   0  0  0  0  0  0  0  0  0  0  0  0
   32.9120   36.6567   18.2827 C   0  0  0  0  0  0  0  0  0  0  0  0
   33.4736   37.9919   17.8917 C   0  0  0  0  0  0  0  0  0  0  0  0
   32.8561   39.1167   17.3603 C   0  0  0  0  0  0  0  0  0  0  0  0
   33.6051   40.2465   17.0778 C   0  0  0  0  0  0  0  0  0  0  0  0
   34.9665   40.2588   17.3243 C   0  0  0  0  0  0  0  0  0  0  0  0
   35.5943   39.1415   17.8560 C   0  0  0  0  0  0  0  0  0  0  0  0
   34.8362   38.0056   18.1387 C   0  0  0  0  0  0  0  0  0  0  0  0
   35.2321   36.6908   18.7028 C   0  0  0  0  0  0  0  0  0  0  0  0
   32.5048   29.7504   16.5142 C   0  0  0  0  0  0  0  0  0  0  0  0
   33.2285   28.4219   16.3263 C   0  0  0  0  0  0  0  0  0  0  0  0
   32.5800   27.4019   15.4544 C   0  0  0  0  0  0  0  0  0  0  0  0
   33.1597   26.1570   15.2261 C   0  0  0  0  0  0  0  0  0  0  0  0
   32.5200   25.2110   14.4450 C   0  0  0  0  0  0  0  0  0  0  0  0
   31.3064   25.5322   13.9006 C   0  0  0  0  0  0  0  0  0  0  0  0
   30.7024   26.7430   14.0934 C   0  0  0  0  0  0  0  0  0  0  0  0
   31.3492   27.6821   14.8748 C   0  0  0  0  0  0  0  0  0  0  0  0
   30.6772   24.6098   13.1242 F   0  0  0  0  0  0  0  0  0  0  0  0
  1  4  1  0  0  0  0
  2  4  1  0  0  0  0
  1  7  1  0  0  0  0
  7  8  1  0  0  0  0
  2  9  1  0  0  0  0
  8  9  1  0  0  0  0
  5 10  1  0  0  0  0
  9 10  1  0  0  0  0
  5 11  1  0  0  0  0
 11 12  1  0  0  0  0
 12 13  1  0  0  0  0
 13 14  2  0  0  0  0
 14 15  1  0  0  0  0
 15 16  2  0  0  0  0
 12 17  2  0  0  0  0
 16 17  1  0  0  0  0
  3 18  2  0  0  0  0
  5 18  1  0  0  0  0
 17 18  1  0  0  0  0
  1 19  1  0  0  0  0
  6 20  2  0  0  0  0
 19 20  1  0  0  0  0
 20 21  1  0  0  0  0
 21 22  1  0  0  0  0
 22 23  2  0  0  0  0
 23 24  1  0  0  0  0
 24 25  2  0  0  0  0
 21 26  2  0  0  0  0
 25 26  1  0  0  0  0
 24 27  1  0  0  0  0
 28 31  1  0  0  0  0
 29 31  1  0  0  0  0
 28 34  1  0  0  0  0
 34 35  1  0  0  0  0
 29 36  1  0  0  0  0
 35 36  1  0  0  0  0
 32 37  1  0  0  0  0
 36 37  1  0  0  0  0
 32 38  1  0  0  0  0
 38 39  1  0  0  0  0
 39 40  1  0  0  0  0
 40 41  2  0  0  0  0
 41 42  1  0  0  0  0
 42 43  2  0  0  0  0
 39 44  2  0  0  0  0
 43 44  1  0  0  0  0
 30 45  2  0  0  0  0
 32 45  1  0  0  0  0
 44 45  1  0  0  0  0
 28 46  1  0  0  0  0
 33 47  2  0  0  0  0
 46 47  1  0  0  0  0
 47 48  1  0  0  0  0
 48 49  1  0  0  0  0
 49 50  2  0  0  0  0
 50 51  1  0  0  0  0
 51 52  2  0  0  0  0
 48 53  2  0  0  0  0
 52 53  1  0  0  0  0
 51 54  1  0  0  0  0
 55 58  1  0  0  0  0
 56 58  1  0  0  0  0
 55 61  1  0  0  0  0
 61 62  1  0  0  0  0
 56 63  1  0  0  0  0
 62 63  1  0  0  0  0
 59 64  1  0  0  0  0
 63 64  1  0  0  0  0
 59 65  1  0  0  0  0
 65 66  1  0  0  0  0
 66 67  1  0  0  0  0
 67 68  2  0  0  0  0
 68 69  1  0  0  0  0
 69 70  2  0  0  0  0
 66 71  2  0  0  0  0
 70 71  1  0  0  0  0
 57 72  2  0  0  0  0
 59 72  1  0  0  0  0
 71 72  1  0  0  0  0
 55 73  1  0  0  0  0
 60 74  2  0  0  0  0
 73 74  1  0  0  0  0
 74 75  1  0  0  0  0
 75 76  1  0  0  0  0
 76 77  2  0  0  0  0
 77 78  1  0  0  0  0
 78 79  2  0  0  0  0
 75 80  2  0  0  0  0
 79 80  1  0  0  0  0
 78 81  1  0  0  0  0
 82 85  1  0  0  0  0
 83 85  1  0  0  0  0
 82 88  1  0  0  0  0
 88 89  1  0  0  0  0
 83 90  1  0  0  0  0
 89 90  1  0  0  0  0
 86 91  1  0  0  0  0
 90 91  1  0  0  0  0
 86 92  1  0  0  0  0
 92 93  1  0  0  0  0
 93 94  1  0  0  0  0
 94 95  2  0  0  0  0
 95 96  1  0  0  0  0
 96 97  2  0  0  0  0
 93 98  2  0  0  0  0
 97 98  1  0  0  0  0
 84 99  2  0  0  0  0
 86 99  1  0  0  0  0
 98 99  1  0  0  0  0
 82100  1  0  0  0  0
 87101  2  0  0  0  0
100101  1  0  0  0  0
101102  1  0  0  0  0
102103  1  0  0  0  0
103104  2  0  0  0  0
104105  1  0  0  0  0
105106  2  0  0  0  0
102107  2  0  0  0  0
106107  1  0  0  0  0
105108  1  0  0  0  0
M  END
$$$$
