9D3E
  PyMOL3.1          3D                             0

 29 33  0  0  0  0  0  0  0  0999 V2000
  171.4830  162.7070  158.7030 C   0  0  0  0  0  0  0  0  0  0  0  0
  170.1660  162.4570  159.0430 C   0  0  0  0  0  0  0  0  0  0  0  0
  169.4800  161.3840  158.4900 C   0  0  0  0  0  0  0  0  0  0  0  0
  170.1490  160.5700  157.5850 C   0  0  0  0  0  0  0  0  0  0  0  0
  171.4660  160.8210  157.2450 C   0  0  0  0  0  0  0  0  0  0  0  0
  172.1550  161.8940  157.7990 C   0  0  0  0  0  0  0  0  0  0  0  0
  173.6290  162.1440  157.4760 C   0  0  0  0  0  0  0  0  0  0  0  0
  174.5900  162.5030  158.6000 C   0  0  0  0  0  0  0  0  0  0  0  0
  174.6550  161.1290  157.9580 C   0  0  0  0  0  0  0  0  0  0  0  0
  173.9270  162.7780  156.1170 C   0  0  0  0  0  0  0  0  0  0  0  0
  175.0780  163.0050  155.7710 O   0  0  0  0  0  0  0  0  0  0  0  0
  172.8770  163.0640  155.3470 N   0  0  0  0  0  0  0  0  0  0  0  0
  173.0210  163.6460  154.0190 C   0  0  0  0  0  0  0  0  0  0  0  0
  172.5690  162.6760  152.9590 C   0  0  0  0  0  0  0  0  0  0  0  0
  173.4650  161.4570  152.8770 C   0  0  0  0  0  0  0  0  0  0  0  0
  172.9340  160.5580  151.8480 N   0  0  0  0  0  0  0  0  0  0  0  0
  172.4180  161.0620  150.7020 C   0  0  0  0  0  0  0  0  0  0  0  0
  172.3610  160.4020  149.6770 O   0  0  0  0  0  0  0  0  0  0  0  0
  171.9160  162.4830  150.6970 C   0  0  0  0  0  0  0  0  0  0  0  0
  172.5080  163.3260  151.6870 O   0  0  0  0  0  0  0  0  0  0  0  0
  172.9780  159.1260  152.1210 C   0  0  0  0  0  0  0  0  0  0  0  0
  173.8940  158.0700  151.4410 C   0  0  0  0  0  0  0  0  0  0  0  0
  173.0500  157.2890  152.4780 C   0  0  0  0  0  0  0  0  0  0  0  0
  171.8220  158.0960  151.9890 C   0  0  0  0  0  0  0  0  0  0  0  0
  173.3270  158.4420  153.4730 C   0  0  0  0  0  0  0  0  0  0  0  0
  168.0620  161.1010  158.8780 C   0  0  0  0  0  0  0  0  0  0  0  0
  167.9640  160.4980  160.0590 F   0  0  0  0  0  0  0  0  0  0  0  0
  167.4400  160.3110  158.0100 F   0  0  0  0  0  0  0  0  0  0  0  0
  167.3250  162.2040  158.9670 F   0  0  0  0  0  0  0  0  0  0  0  0
  1  2  1  0  0  0  0
  2  3  2  0  0  0  0
  3  4  1  0  0  0  0
  4  5  2  0  0  0  0
  1  6  2  0  0  0  0
  5  6  1  0  0  0  0
  6  7  1  0  0  0  0
  7  8  1  0  0  0  0
  7  9  1  0  0  0  0
  8  9  1  0  0  0  0
  7 10  1  0  0  0  0
 10 11  2  0  0  0  0
 10 12  1  0  0  0  0
 12 13  1  0  0  0  0
 13 14  1  0  0  0  0
 14 15  1  0  0  0  0
 15 16  1  0  0  0  0
 16 17  1  0  0  0  0
 17 18  2  0  0  0  0
 17 19  1  0  0  0  0
 14 20  1  0  0  0  0
 19 20  1  0  0  0  0
 16 21  1  0  0  0  0
 21 22  1  0  0  0  0
 22 23  1  0  0  0  0
 21 24  1  0  0  0  0
 23 24  1  0  0  0  0
 21 25  1  0  0  0  0
 23 25  1  0  0  0  0
  3 26  1  0  0  0  0
 26 27  1  0  0  0  0
 26 28  1  0  0  0  0
 26 29  1  0  0  0  0
M  END
$$$$
