7DSK
  PyMOL3.1          3D                             0

 26 29  0  0  0  0  0  0  0  0999 V2000
  145.6120  137.7620  134.7980 C   0  0  0  0  0  0  0  0  0  0  0  0
  145.5120  139.1690  134.7300 C   0  0  0  0  0  0  0  0  0  0  0  0
  145.0810  139.8080  133.4750 C   0  0  0  0  0  0  0  0  0  0  0  0
  144.7860  138.9950  132.3970 C   0  0  0  0  0  0  0  0  0  0  0  0
  144.8940  137.5700  132.4880 C   0  0  0  0  0  0  0  0  0  0  0  0
  145.3120  136.9520  133.7050 C   0  0  0  0  0  0  0  0  0  0  0  0
  145.8800  140.1740  136.0600 C   0  0  0  0  0  0  0  0  0  0  0  0
  146.0430  141.7570  135.6560 C   0  0  0  0  0  0  0  0  0  0  0  0
  145.2180  142.0110  134.5500 C   0  0  0  0  0  0  0  0  0  0  0  0
  145.0180  141.2150  133.5120 C   0  0  0  0  0  0  0  0  0  0  0  0
  145.4130  135.5440  133.8230 O   0  0  0  0  0  0  0  0  0  0  0  0
  147.4170  142.0710  135.3350 N   0  0  0  0  0  0  0  0  0  0  0  0
  144.7660  135.0470  135.0080 C   0  0  0  0  0  0  0  0  0  0  0  0
  144.7090  133.5380  135.0110 C   0  0  0  0  0  0  0  0  0  0  0  0
  143.6000  132.8570  135.3390 C   0  0  0  0  0  0  0  0  0  0  0  0
  143.5460  131.5900  135.3510 C   0  0  0  0  0  0  0  0  0  0  0  0
  144.5660  130.8480  135.0470 C   0  0  0  0  0  0  0  0  0  0  0  0
  145.8620  131.3230  134.6680 C   0  0  0  0  0  0  0  0  0  0  0  0
  145.9230  132.8860  134.6530 C   0  0  0  0  0  0  0  0  0  0  0  0
  142.4350  133.5670  135.6870 C   0  0  0  0  0  0  0  0  0  0  0  0
  141.2940  132.9380  136.0160 C   0  0  0  0  0  0  0  0  0  0  0  0
  141.2540  131.6100  136.0170 C   0  0  0  0  0  0  0  0  0  0  0  0
  142.3510  130.9290  135.6960 C   0  0  0  0  0  0  0  0  0  0  0  0
  145.6420  142.5400  136.9220 C   0  0  0  0  0  0  0  0  0  0  0  0
  144.4280  142.7910  137.1380 O   0  0  0  0  0  0  0  0  0  0  0  0
  146.5330  142.9060  137.7490 O   0  5  0  0  0  0  0  0  0  0  0  0
  1  2  2  0  0  0  0
  2  3  1  0  0  0  0
  3  4  2  0  0  0  0
  4  5  1  0  0  0  0
  1  6  1  0  0  0  0
  5  6  2  0  0  0  0
  2  7  1  0  0  0  0
  7  8  1  0  0  0  0
  8  9  1  0  0  0  0
  3 10  1  0  0  0  0
  9 10  1  0  0  0  0
  6 11  1  0  0  0  0
  8 12  1  0  0  0  0
 11 13  1  0  0  0  0
 13 14  1  0  0  0  0
 14 15  1  0  0  0  0
 15 16  1  0  0  0  0
 16 17  1  0  0  0  0
 17 18  2  0  0  0  0
 14 19  2  0  0  0  0
 18 19  1  0  0  0  0
 15 20  2  0  0  0  0
 20 21  1  0  0  0  0
 21 22  2  0  0  0  0
 16 23  2  0  0  0  0
 22 23  1  0  0  0  0
  8 24  1  0  0  0  0
 24 25  2  0  0  0  0
 24 26  1  0  0  0  0
M  END
$$$$
