7UMU
  PyMOL3.1          3D                             0

 22 24  0  0  0  0  0  0  0  0999 V2000
  158.9990  -18.6347   95.2473 C   0  0  0  0  0  0  0  0  0  0  0  0
  159.5715  -19.5130   94.1050 C   0  0  0  0  0  0  0  0  0  0  0  0
  159.3766  -18.7791   92.7704 C   0  0  0  0  0  0  0  0  0  0  0  0
  161.0832  -19.7553   94.3398 C   0  0  0  0  0  0  0  0  0  0  0  0
  158.8592  -20.8637   94.0230 C   0  0  0  0  0  0  0  0  0  0  0  0
  157.7928  -20.9108   93.3574 O   0  0  0  0  0  0  0  0  0  0  0  0
  159.3463  -22.1590   94.6921 C   0  0  0  0  0  0  0  0  0  0  0  0
  158.1574  -23.6517   94.6342 S   0  0  0  0  0  0  0  0  0  0  0  0
  158.2655  -24.6494   93.0821 C   0  0  0  0  0  0  0  0  0  0  0  0
  157.5775  -25.8194   92.9800 N   0  0  0  0  0  0  0  0  0  0  0  0
  157.6618  -26.5646   91.8206 C   0  0  0  0  0  0  0  0  0  0  0  0
  158.4797  -26.1052   90.7251 C   0  0  0  0  0  0  0  0  0  0  0  0
  158.5957  -26.9148   89.4277 C   0  0  0  0  0  0  0  0  0  0  0  0
  159.5328  -26.2720   88.3035 C   0  0  0  0  0  0  0  0  0  0  0  0
  160.2312  -24.9206   88.6184 C   0  0  0  0  0  0  0  0  0  0  0  0
  161.0836  -24.2933   87.6553 C   0  0  0  0  0  0  0  0  0  0  0  0
  161.7192  -23.0453   87.9598 C   0  0  0  0  0  0  0  0  0  0  0  0
  161.5073  -22.4310   89.2031 C   0  0  0  0  0  0  0  0  0  0  0  0
  160.6641  -23.0545   90.1623 C   0  0  0  0  0  0  0  0  0  0  0  0
  160.0296  -24.3087   89.8580 C   0  0  0  0  0  0  0  0  0  0  0  0
  159.1688  -24.8882   90.8944 C   0  0  0  0  0  0  0  0  0  0  0  0
  159.0582  -24.1665   92.0723 N   0  0  0  0  0  0  0  0  0  0  0  0
  1  2  1  0  0  0  0
  2  3  1  0  0  0  0
  2  4  1  0  0  0  0
  2  5  1  0  0  0  0
  5  6  2  0  0  0  0
  5  7  1  0  0  0  0
  7  8  1  0  0  0  0
  8  9  1  0  0  0  0
  9 10  1  0  0  0  0
 10 11  2  0  0  0  0
 11 12  1  0  0  0  0
 12 13  2  0  0  0  0
 13 14  1  0  0  0  0
 14 15  2  0  0  0  0
 15 16  1  0  0  0  0
 16 17  2  0  0  0  0
 17 18  1  0  0  0  0
 18 19  2  0  0  0  0
 15 20  1  0  0  0  0
 19 20  1  0  0  0  0
 12 21  1  0  0  0  0
 20 21  2  0  0  0  0
  9 22  2  0  0  0  0
 21 22  1  0  0  0  0
M  END
$$$$
