7UMU
  PyMOL3.1          3D                             0

 22 24  0  0  0  0  0  0  0  0999 V2000
  159.6203   17.6093  116.3500 C   0  0  0  0  0  0  0  0  0  0  0  0
  159.1412   19.0589  116.6239 C   0  0  0  0  0  0  0  0  0  0  0  0
  159.4846   19.9554  115.4135 C   0  0  0  0  0  0  0  0  0  0  0  0
  157.6193   19.0507  116.8426 C   0  0  0  0  0  0  0  0  0  0  0  0
  159.8152   19.6395  117.8689 C   0  0  0  0  0  0  0  0  0  0  0  0
  161.0542   19.8475  117.7988 O   0  0  0  0  0  0  0  0  0  0  0  0
  159.0956   19.9727  119.1932 C   0  0  0  0  0  0  0  0  0  0  0  0
  160.1990   20.3301  120.7243 S   0  0  0  0  0  0  0  0  0  0  0  0
  160.2826   22.1081  121.1678 C   0  0  0  0  0  0  0  0  0  0  0  0
  160.8523   22.4929  122.3413 N   0  0  0  0  0  0  0  0  0  0  0  0
  160.9045   23.8330  122.6685 C   0  0  0  0  0  0  0  0  0  0  0  0
  160.3532   24.8148  121.7654 C   0  0  0  0  0  0  0  0  0  0  0  0
  160.3914   26.3110  122.0935 C   0  0  0  0  0  0  0  0  0  0  0  0
  159.9751   27.2751  120.8867 C   0  0  0  0  0  0  0  0  0  0  0  0
  159.2457   26.6362  119.6741 C   0  0  0  0  0  0  0  0  0  0  0  0
  158.6420   27.4490  118.6622 C   0  0  0  0  0  0  0  0  0  0  0  0
  157.9752   26.8372  117.5501 C   0  0  0  0  0  0  0  0  0  0  0  0
  157.9127   25.4392  117.4487 C   0  0  0  0  0  0  0  0  0  0  0  0
  158.5161   24.6318  118.4515 C   0  0  0  0  0  0  0  0  0  0  0  0
  159.1826   25.2451  119.5677 C   0  0  0  0  0  0  0  0  0  0  0  0
  159.7768   24.3491  120.5665 C   0  0  0  0  0  0  0  0  0  0  0  0
  159.7433   22.9979  120.2755 N   0  0  0  0  0  0  0  0  0  0  0  0
  1  2  1  0  0  0  0
  2  3  1  0  0  0  0
  2  4  1  0  0  0  0
  2  5  1  0  0  0  0
  5  6  2  0  0  0  0
  5  7  1  0  0  0  0
  7  8  1  0  0  0  0
  8  9  1  0  0  0  0
  9 10  1  0  0  0  0
 10 11  2  0  0  0  0
 11 12  1  0  0  0  0
 12 13  2  0  0  0  0
 13 14  1  0  0  0  0
 14 15  2  0  0  0  0
 15 16  1  0  0  0  0
 16 17  2  0  0  0  0
 17 18  1  0  0  0  0
 18 19  2  0  0  0  0
 15 20  1  0  0  0  0
 19 20  1  0  0  0  0
 12 21  1  0  0  0  0
 20 21  2  0  0  0  0
  9 22  2  0  0  0  0
 21 22  1  0  0  0  0
M  END
$$$$
