9AVA
  PyMOL3.1          3D                             0

444480  0  0  0  0  0  0  0  0999 V2000
  -21.9920  -15.6740  -44.3030 N   0  0  0  0  0  0  0  0  0  0  0  0
  -20.5450  -15.8270  -44.0620 C   0  0  0  0  0  0  0  0  0  0  0  0
  -20.0050  -16.3400  -41.7810 O   0  0  0  0  0  0  0  0  0  0  0  0
  -25.7990  -22.4070  -45.1050 Cl  0  0  0  0  0  0  0  0  0  0  0  0
  -27.2420  -19.6660  -45.9380 Cl  0  0  0  0  0  0  0  0  0  0  0  0
  -20.0330  -14.3990  -43.8270 C   0  0  0  0  0  0  0  0  0  0  0  0
  -20.5600  -18.0990  -43.0690 N   0  0  0  0  0  0  0  0  0  0  0  0
  -21.4110  -21.1320  -41.6370 O   0  0  0  0  0  0  0  0  0  0  0  0
  -21.3060  -13.5450  -43.7680 C   0  0  0  0  0  0  0  0  0  0  0  0
  -22.5740  -19.2600  -41.1890 N   0  0  0  0  0  0  0  0  0  0  0  0
  -22.2060  -14.2810  -44.7510 C   0  0  0  0  0  0  0  0  0  0  0  0
  -21.0400  -12.1210  -44.0140 N   0  0  0  0  0  0  0  0  0  0  0  0
  -22.6150  -16.7010  -45.1660 C   0  0  0  0  0  0  0  0  0  0  0  0
  -24.0870  -16.4440  -45.4970 C   0  0  0  0  0  0  0  0  0  0  0  0
  -24.6410  -17.1660  -46.7290 C   0  0  0  0  0  0  0  0  0  0  0  0
  -23.8050  -16.9930  -47.9760 C   0  0  0  0  0  0  0  0  0  0  0  0
  -23.5240  -15.7240  -48.4810 C   0  0  0  0  0  0  0  0  0  0  0  0
  -22.7400  -15.5710  -49.6160 C   0  0  0  0  0  0  0  0  0  0  0  0
  -22.2440  -16.6830  -50.2760 C   0  0  0  0  0  0  0  0  0  0  0  0
  -22.5350  -17.9510  -49.7970 C   0  0  0  0  0  0  0  0  0  0  0  0
  -23.3010  -18.1050  -48.6500 C   0  0  0  0  0  0  0  0  0  0  0  0
  -22.4910  -18.1620  -44.6410 C   0  0  0  0  0  0  0  0  0  0  0  0
  -21.0740  -18.6430  -44.3360 C   0  0  0  0  0  0  0  0  0  0  0  0
  -20.3370  -16.7770  -42.8720 C   0  0  0  0  0  0  0  0  0  0  0  0
  -20.2880  -19.0300  -41.9740 C   0  0  0  0  0  0  0  0  0  0  0  0
  -19.0340  -19.8470  -42.2990 C   0  0  0  0  0  0  0  0  0  0  0  0
  -17.7130  -19.1250  -42.0700 C   0  0  0  0  0  0  0  0  0  0  0  0
  -16.5750  -19.9060  -42.7200 C   0  0  0  0  0  0  0  0  0  0  0  0
  -17.4430  -18.9320  -40.5680 C   0  0  0  0  0  0  0  0  0  0  0  0
  -21.4880  -19.9060  -41.6080 C   0  0  0  0  0  0  0  0  0  0  0  0
  -23.8440  -19.9380  -40.9620 C   0  0  0  0  0  0  0  0  0  0  0  0
  -24.7360  -19.9060  -42.1770 C   0  0  0  0  0  0  0  0  0  0  0  0
  -25.4530  -18.7580  -42.4960 C   0  0  0  0  0  0  0  0  0  0  0  0
  -26.2170  -18.6910  -43.6480 C   0  0  0  0  0  0  0  0  0  0  0  0
  -26.2900  -19.7870  -44.4920 C   0  0  0  0  0  0  0  0  0  0  0  0
  -25.6000  -20.9560  -44.1690 C   0  0  0  0  0  0  0  0  0  0  0  0
  -24.8170  -21.0060  -43.0280 C   0  0  0  0  0  0  0  0  0  0  0  0
  -92.2780  -42.0750  -10.3310 N   0  0  0  0  0  0  0  0  0  0  0  0
  -93.7410  -42.2470  -10.3680 C   0  0  0  0  0  0  0  0  0  0  0  0
  -94.4280  -44.2540  -11.5250 O   0  0  0  0  0  0  0  0  0  0  0  0
  -88.6840  -46.3090   -4.3950 Cl  0  0  0  0  0  0  0  0  0  0  0  0
  -87.3430  -43.8370   -5.9860 Cl  0  0  0  0  0  0  0  0  0  0  0  0
  -94.2310  -41.4100  -11.5570 C   0  0  0  0  0  0  0  0  0  0  0  0
  -93.8490  -44.4780   -9.3490 N   0  0  0  0  0  0  0  0  0  0  0  0
  -93.2560  -47.0920   -7.4770 O   0  0  0  0  0  0  0  0  0  0  0  0
  -92.9480  -41.0230  -12.3110 C   0  0  0  0  0  0  0  0  0  0  0  0
  -92.0800  -47.0860   -9.4040 N   0  0  0  0  0  0  0  0  0  0  0  0
  -91.9250  -40.9210  -11.1850 C   0  0  0  0  0  0  0  0  0  0  0  0
  -93.1240  -39.8010  -13.1100 N   0  0  0  0  0  0  0  0  0  0  0  0
  -91.6600  -42.0940   -8.9860 C   0  0  0  0  0  0  0  0  0  0  0  0
  -90.1620  -41.7790   -8.9430 C   0  0  0  0  0  0  0  0  0  0  0  0
  -89.6270  -41.1950   -7.6290 C   0  0  0  0  0  0  0  0  0  0  0  0
  -90.5070  -40.1270   -7.0150 C   0  0  0  0  0  0  0  0  0  0  0  0
  -90.7460  -38.9210   -7.6820 C   0  0  0  0  0  0  0  0  0  0  0  0
  -91.5250  -37.9320   -7.0990 C   0  0  0  0  0  0  0  0  0  0  0  0
  -92.0700  -38.1250   -5.8420 C   0  0  0  0  0  0  0  0  0  0  0  0
  -91.8300  -39.3130   -5.1660 C   0  0  0  0  0  0  0  0  0  0  0  0
  -91.0620  -40.3090   -5.7500 C   0  0  0  0  0  0  0  0  0  0  0  0
  -91.8910  -43.4290   -8.2280 C   0  0  0  0  0  0  0  0  0  0  0  0
  -93.3420  -43.8850   -8.1030 C   0  0  0  0  0  0  0  0  0  0  0  0
  -94.0520  -43.7500  -10.4750 C   0  0  0  0  0  0  0  0  0  0  0  0
  -94.1900  -45.8980   -9.3470 C   0  0  0  0  0  0  0  0  0  0  0  0
  -95.5820  -46.0820   -8.7300 C   0  0  0  0  0  0  0  0  0  0  0  0
  -96.2490  -47.4270   -9.0120 C   0  0  0  0  0  0  0  0  0  0  0  0
  -97.5030  -47.5760   -8.1830 C   0  0  0  0  0  0  0  0  0  0  0  0
  -96.5880  -47.5570  -10.4890 C   0  0  0  0  0  0  0  0  0  0  0  0
  -93.1300  -46.7540   -8.6530 C   0  0  0  0  0  0  0  0  0  0  0  0
  -90.9070  -47.7590   -8.8630 C   0  0  0  0  0  0  0  0  0  0  0  0
  -89.9710  -46.8230   -8.1390 C   0  0  0  0  0  0  0  0  0  0  0  0
  -89.2330  -45.8740   -8.8380 C   0  0  0  0  0  0  0  0  0  0  0  0
  -88.4010  -44.9880   -8.1760 C   0  0  0  0  0  0  0  0  0  0  0  0
  -88.2840  -45.0500   -6.7960 C   0  0  0  0  0  0  0  0  0  0  0  0
  -88.9800  -46.0310   -6.0870 C   0  0  0  0  0  0  0  0  0  0  0  0
  -89.8380  -46.8890   -6.7540 C   0  0  0  0  0  0  0  0  0  0  0  0
  -45.8130   12.8600  -37.1420 N   0  0  0  0  0  0  0  0  0  0  0  0
  -47.2640   12.9540  -36.9020 C   0  0  0  0  0  0  0  0  0  0  0  0
  -48.0110   12.4790  -34.6770 O   0  0  0  0  0  0  0  0  0  0  0  0
  -41.9950   19.3840  -35.0650 Cl  0  0  0  0  0  0  0  0  0  0  0  0
  -40.6790   17.2030  -36.9990 Cl  0  0  0  0  0  0  0  0  0  0  0  0
  -47.8370   11.5930  -37.3180 C   0  0  0  0  0  0  0  0  0  0  0  0
  -47.2090   14.5640  -35.0120 N   0  0  0  0  0  0  0  0  0  0  0  0
  -46.3290   16.8970  -32.8140 O   0  0  0  0  0  0  0  0  0  0  0  0
  -46.6030   10.7460  -37.6470 C   0  0  0  0  0  0  0  0  0  0  0  0
  -45.2360   14.9240  -32.6640 N   0  0  0  0  0  0  0  0  0  0  0  0
  -45.6290   11.8040  -38.1580 C   0  0  0  0  0  0  0  0  0  0  0  0
  -46.9370    9.6340  -38.5470 N   0  0  0  0  0  0  0  0  0  0  0  0
  -45.1650   14.1390  -37.5120 C   0  0  0  0  0  0  0  0  0  0  0  0
  -43.7380   14.0440  -38.0560 C   0  0  0  0  0  0  0  0  0  0  0  0
  -43.1830   15.2020  -38.9020 C   0  0  0  0  0  0  0  0  0  0  0  0
  -44.0880   15.6760  -40.0160 C   0  0  0  0  0  0  0  0  0  0  0  0
  -44.4080   14.8410  -41.0830 C   0  0  0  0  0  0  0  0  0  0  0  0
  -45.2440   15.2800  -42.0990 C   0  0  0  0  0  0  0  0  0  0  0  0
  -45.7560   16.5680  -42.0750 C   0  0  0  0  0  0  0  0  0  0  0  0
  -45.4390   17.4090  -41.0250 C   0  0  0  0  0  0  0  0  0  0  0  0
  -44.6190   16.9660  -39.9970 C   0  0  0  0  0  0  0  0  0  0  0  0
  -45.2180   15.1730  -36.3610 C   0  0  0  0  0  0  0  0  0  0  0  0
  -46.6150   15.5750  -35.8980 C   0  0  0  0  0  0  0  0  0  0  0  0
  -47.5240   13.3090  -35.4300 C   0  0  0  0  0  0  0  0  0  0  0  0
  -47.4650   14.9330  -33.6240 C   0  0  0  0  0  0  0  0  0  0  0  0
  -48.7970   15.6890  -33.5290 C   0  0  0  0  0  0  0  0  0  0  0  0
  -49.6080   15.4600  -32.2500 C   0  0  0  0  0  0  0  0  0  0  0  0
  -49.3020   16.4780  -31.1540 C   0  0  0  0  0  0  0  0  0  0  0  0
  -49.5580   14.0280  -31.7150 C   0  0  0  0  0  0  0  0  0  0  0  0
  -46.2850   15.6810  -32.9980 C   0  0  0  0  0  0  0  0  0  0  0  0
  -43.9620   15.4860  -32.2360 C   0  0  0  0  0  0  0  0  0  0  0  0
  -43.0970   15.9300  -33.3890 C   0  0  0  0  0  0  0  0  0  0  0  0
  -42.4250   14.9990  -34.1730 C   0  0  0  0  0  0  0  0  0  0  0  0
  -41.6740   15.3950  -35.2660 C   0  0  0  0  0  0  0  0  0  0  0  0
  -41.5740   16.7390  -35.5840 C   0  0  0  0  0  0  0  0  0  0  0  0
  -42.2100   17.6860  -34.7860 C   0  0  0  0  0  0  0  0  0  0  0  0
  -42.9770   17.2820  -33.7060 C   0  0  0  0  0  0  0  0  0  0  0  0
  -70.5420  -34.7220   32.7670 N   0  0  0  0  0  0  0  0  0  0  0  0
  -72.0060  -34.8290   32.8990 C   0  0  0  0  0  0  0  0  0  0  0  0
  -72.8020  -36.9870   33.5860 O   0  0  0  0  0  0  0  0  0  0  0  0
  -67.1010  -33.2090   39.3190 Cl  0  0  0  0  0  0  0  0  0  0  0  0
  -65.4280  -33.0570   36.6050 Cl  0  0  0  0  0  0  0  0  0  0  0  0
  -72.5250  -35.1400   31.4840 C   0  0  0  0  0  0  0  0  0  0  0  0
  -72.0780  -35.6300   35.2420 N   0  0  0  0  0  0  0  0  0  0  0  0
  -71.3060  -36.1430   38.3520 O   0  0  0  0  0  0  0  0  0  0  0  0
  -71.2600  -35.3690   30.6480 C   0  0  0  0  0  0  0  0  0  0  0  0
  -70.3600  -37.6760   36.9890 N   0  0  0  0  0  0  0  0  0  0  0  0
  -70.2620  -34.4500   31.3430 C   0  0  0  0  0  0  0  0  0  0  0  0
  -71.4840  -35.1150   29.2160 N   0  0  0  0  0  0  0  0  0  0  0  0
  -69.8840  -33.7900   33.7080 C   0  0  0  0  0  0  0  0  0  0  0  0
  -68.4040  -33.5120   33.4400 C   0  0  0  0  0  0  0  0  0  0  0  0
  -67.8320  -32.2100   34.0210 C   0  0  0  0  0  0  0  0  0  0  0  0
  -68.6750  -30.9870   33.7450 C   0  0  0  0  0  0  0  0  0  0  0  0
  -68.9060  -30.5570   32.4420 C   0  0  0  0  0  0  0  0  0  0  0  0
  -69.7010  -29.4490   32.1930 C   0  0  0  0  0  0  0  0  0  0  0  0
  -70.2620  -28.7440   33.2430 C   0  0  0  0  0  0  0  0  0  0  0  0
  -70.0310  -29.1550   34.5420 C   0  0  0  0  0  0  0  0  0  0  0  0
  -69.2470  -30.2710   34.7930 C   0  0  0  0  0  0  0  0  0  0  0  0
  -70.0610  -34.1780   35.2010 C   0  0  0  0  0  0  0  0  0  0  0  0
  -71.5010  -34.3490   35.6750 C   0  0  0  0  0  0  0  0  0  0  0  0
  -72.3340  -35.9150   33.9390 C   0  0  0  0  0  0  0  0  0  0  0  0
  -72.4200  -36.6130   36.2670 C   0  0  0  0  0  0  0  0  0  0  0  0
  -73.7680  -36.2520   36.9020 C   0  0  0  0  0  0  0  0  0  0  0  0
  -75.0000  -36.8010   36.1760 C   0  0  0  0  0  0  0  0  0  0  0  0
  -76.2810  -36.1930   36.7300 C   0  0  0  0  0  0  0  0  0  0  0  0
  -75.0680  -38.3220   36.2490 C   0  0  0  0  0  0  0  0  0  0  0  0
  -71.3090  -36.7880   37.3040 C   0  0  0  0  0  0  0  0  0  0  0  0
  -69.0810  -37.7370   37.6840 C   0  0  0  0  0  0  0  0  0  0  0  0
  -68.2010  -36.5430   37.4080 C   0  0  0  0  0  0  0  0  0  0  0  0
  -67.4690  -36.4600   36.2310 C   0  0  0  0  0  0  0  0  0  0  0  0
  -66.6130  -35.3970   35.9940 C   0  0  0  0  0  0  0  0  0  0  0  0
  -66.4880  -34.3900   36.9360 C   0  0  0  0  0  0  0  0  0  0  0  0
  -67.2230  -34.4540   38.1170 C   0  0  0  0  0  0  0  0  0  0  0  0
  -68.0730  -35.5230   38.3490 C   0  0  0  0  0  0  0  0  0  0  0  0
   -1.4210  -42.9630    5.6510 N   0  0  0  0  0  0  0  0  0  0  0  0
   -2.8750  -42.8430    5.4420 C   0  0  0  0  0  0  0  0  0  0  0  0
   -3.4250  -41.1630    3.8250 O   0  0  0  0  0  0  0  0  0  0  0  0
    2.2570  -47.2760    0.5650 Cl  0  0  0  0  0  0  0  0  0  0  0  0
    3.7900  -46.5180    3.2800 Cl  0  0  0  0  0  0  0  0  0  0  0  0
   -3.3640  -41.8750    6.5300 C   0  0  0  0  0  0  0  0  0  0  0  0
   -2.8810  -43.2040    3.0060 N   0  0  0  0  0  0  0  0  0  0  0  0
   -1.8300  -43.9040   -0.0730 O   0  0  0  0  0  0  0  0  0  0  0  0
   -2.0830  -41.2730    7.1100 C   0  0  0  0  0  0  0  0  0  0  0  0
   -0.8230  -42.2380    1.0580 N   0  0  0  0  0  0  0  0  0  0  0  0
   -1.1210  -42.4520    7.0050 C   0  0  0  0  0  0  0  0  0  0  0  0
   -2.3130  -40.7740    8.4710 N   0  0  0  0  0  0  0  0  0  0  0  0
   -0.7770  -44.2400    5.2620 C   0  0  0  0  0  0  0  0  0  0  0  0
    0.7090  -44.3820    5.6110 C   0  0  0  0  0  0  0  0  0  0  0  0
    1.2740  -45.8080    5.6750 C   0  0  0  0  0  0  0  0  0  0  0  0
    0.5340  -46.7390    6.6090 C   0  0  0  0  0  0  0  0  0  0  0  0
    0.3400  -46.4050    7.9490 C   0  0  0  0  0  0  0  0  0  0  0  0
   -0.4350  -47.2070    8.7720 C   0  0  0  0  0  0  0  0  0  0  0  0
   -1.0110  -48.3620    8.2760 C   0  0  0  0  0  0  0  0  0  0  0  0
   -0.7910  -48.7260    6.9620 C   0  0  0  0  0  0  0  0  0  0  0  0
   -0.0220  -47.9230    6.1330 C   0  0  0  0  0  0  0  0  0  0  0  0
   -0.9430  -44.5570    3.7550 C   0  0  0  0  0  0  0  0  0  0  0  0
   -2.3780  -44.5690    3.2330 C   0  0  0  0  0  0  0  0  0  0  0  0
   -3.1030  -42.3260    4.0180 C   0  0  0  0  0  0  0  0  0  0  0  0
   -3.1230  -42.7820    1.6300 C   0  0  0  0  0  0  0  0  0  0  0  0
   -4.3980  -43.4300    1.0690 C   0  0  0  0  0  0  0  0  0  0  0  0
   -5.7190  -42.8830    1.6270 C   0  0  0  0  0  0  0  0  0  0  0  0
   -6.8560  -43.8180    1.3260 C   0  0  0  0  0  0  0  0  0  0  0  0
   -6.0430  -41.4870    1.0970 C   0  0  0  0  0  0  0  0  0  0  0  0
   -1.8690  -43.0200    0.7780 C   0  0  0  0  0  0  0  0  0  0  0  0
    0.4680  -42.3880    0.4010 C   0  0  0  0  0  0  0  0  0  0  0  0
    1.3460  -43.4180    1.0660 C   0  0  0  0  0  0  0  0  0  0  0  0
    2.1110  -43.0780    2.1750 C   0  0  0  0  0  0  0  0  0  0  0  0
    2.8640  -44.0300    2.8400 C   0  0  0  0  0  0  0  0  0  0  0  0
    2.8710  -45.3400    2.3940 C   0  0  0  0  0  0  0  0  0  0  0  0
    2.1380  -45.6890    1.2620 C   0  0  0  0  0  0  0  0  0  0  0  0
    1.3680  -44.7370    0.6150 C   0  0  0  0  0  0  0  0  0  0  0  0
   22.7640  -21.4640   25.8790 N   0  0  0  0  0  0  0  0  0  0  0  0
   24.2170  -21.2390   25.7470 C   0  0  0  0  0  0  0  0  0  0  0  0
   24.8590  -19.6710   24.0420 O   0  0  0  0  0  0  0  0  0  0  0  0
   19.0760  -16.2340   30.0340 Cl  0  0  0  0  0  0  0  0  0  0  0  0
   17.5340  -18.8930   29.1870 Cl  0  0  0  0  0  0  0  0  0  0  0  0
   24.7140  -22.3620   24.8210 C   0  0  0  0  0  0  0  0  0  0  0  0
   24.1820  -18.7880   26.0000 N   0  0  0  0  0  0  0  0  0  0  0  0
   23.3690  -15.6080   26.6490 O   0  0  0  0  0  0  0  0  0  0  0  0
   23.4260  -22.9360   24.2210 C   0  0  0  0  0  0  0  0  0  0  0  0
   22.2410  -16.6910   25.0170 N   0  0  0  0  0  0  0  0  0  0  0  0
   22.4800  -22.8390   25.4150 C   0  0  0  0  0  0  0  0  0  0  0  0
   23.6400  -24.2660   23.6410 N   0  0  0  0  0  0  0  0  0  0  0  0
   22.0840  -21.0200   27.1170 C   0  0  0  0  0  0  0  0  0  0  0  0
   20.6010  -21.3820   27.2460 C   0  0  0  0  0  0  0  0  0  0  0  0
   20.0440  -21.4980   28.6790 C   0  0  0  0  0  0  0  0  0  0  0  0
   20.8410  -22.4070   29.5870 C   0  0  0  0  0  0  0  0  0  0  0  0
   21.1490  -23.7120   29.2030 C   0  0  0  0  0  0  0  0  0  0  0  0
   21.9770  -24.5030   29.9860 C   0  0  0  0  0  0  0  0  0  0  0  0
   22.4910  -24.0120   31.1750 C   0  0  0  0  0  0  0  0  0  0  0  0
   22.1560  -22.7350   31.5880 C   0  0  0  0  0  0  0  0  0  0  0  0
   21.3440  -21.9350   30.7980 C   0  0  0  0  0  0  0  0  0  0  0  0
   22.2180  -19.5030   27.3600 C   0  0  0  0  0  0  0  0  0  0  0  0
   23.6410  -18.9580   27.3560 C   0  0  0  0  0  0  0  0  0  0  0  0
   24.4500  -19.8300   25.1800 C   0  0  0  0  0  0  0  0  0  0  0  0
   24.4860  -17.4360   25.5510 C   0  0  0  0  0  0  0  0  0  0  0  0
   25.7860  -16.9820   26.2250 C   0  0  0  0  0  0  0  0  0  0  0  0
   26.7120  -16.1280   25.3680 C   0  0  0  0  0  0  0  0  0  0  0  0
   27.7750  -15.4910   26.2460 C   0  0  0  0  0  0  0  0  0  0  0  0
   27.3660  -16.9390   24.2550 C   0  0  0  0  0  0  0  0  0  0  0  0
   23.3160  -16.4780   25.7800 C   0  0  0  0  0  0  0  0  0  0  0  0
   20.9890  -15.9720   25.2040 C   0  0  0  0  0  0  0  0  0  0  0  0
   20.0680  -16.6510   26.1880 C   0  0  0  0  0  0  0  0  0  0  0  0
   19.3270  -17.7650   25.8140 C   0  0  0  0  0  0  0  0  0  0  0  0
   18.5280  -18.4300   26.7290 C   0  0  0  0  0  0  0  0  0  0  0  0
   18.4620  -17.9860   28.0390 C   0  0  0  0  0  0  0  0  0  0  0  0
   19.1790  -16.8580   28.4200 C   0  0  0  0  0  0  0  0  0  0  0  0
   19.9770  -16.1970   27.5020 C   0  0  0  0  0  0  0  0  0  0  0  0
  -23.4020  -30.7990  -37.3280 N   0  0  0  0  0  0  0  0  0  0  0  0
  -24.8510  -30.5410  -37.3090 C   0  0  0  0  0  0  0  0  0  0  0  0
  -25.3450  -28.4810  -36.1550 O   0  0  0  0  0  0  0  0  0  0  0  0
  -19.6880  -27.3030  -43.1100 Cl  0  0  0  0  0  0  0  0  0  0  0  0
  -18.2300  -29.5770  -41.4530 Cl  0  0  0  0  0  0  0  0  0  0  0  0
  -25.3890  -31.3200  -36.0990 C   0  0  0  0  0  0  0  0  0  0  0  0
  -24.8510  -28.3400  -38.3670 N   0  0  0  0  0  0  0  0  0  0  0  0
  -23.9280  -25.7140  -40.1160 O   0  0  0  0  0  0  0  0  0  0  0  0
  -24.1320  -31.7620  -35.3460 C   0  0  0  0  0  0  0  0  0  0  0  0
  -22.8550  -26.0220  -38.1590 N   0  0  0  0  0  0  0  0  0  0  0  0
  -23.1620  -31.9930  -36.4950 C   0  0  0  0  0  0  0  0  0  0  0  0
  -24.4250  -32.9630  -34.5510 N   0  0  0  0  0  0  0  0  0  0  0  0
  -22.7830  -30.8520  -38.6690 C   0  0  0  0  0  0  0  0  0  0  0  0
  -21.2950  -31.2030  -38.6070 C   0  0  0  0  0  0  0  0  0  0  0  0
  -20.6540  -31.7470  -39.8940 C   0  0  0  0  0  0  0  0  0  0  0  0
  -21.4530  -32.8360  -40.5700 C   0  0  0  0  0  0  0  0  0  0  0  0
  -21.7720  -34.0130  -39.8950 C   0  0  0  0  0  0  0  0  0  0  0  0
  -22.5350  -34.9940  -40.5090 C   0  0  0  0  0  0  0  0  0  0  0  0
  -22.9840  -34.8200  -41.8020 C   0  0  0  0  0  0  0  0  0  0  0  0
  -22.6470  -33.6690  -42.4930 C   0  0  0  0  0  0  0  0  0  0  0  0
  -21.8950  -32.6800  -41.8790 C   0  0  0  0  0  0  0  0  0  0  0  0
  -22.9790  -29.5500  -39.5410 C   0  0  0  0  0  0  0  0  0  0  0  0
  -24.4010  -28.9930  -39.6070 C   0  0  0  0  0  0  0  0  0  0  0  0
  -25.0510  -29.0260  -37.2140 C   0  0  0  0  0  0  0  0  0  0  0  0
  -25.1110  -26.9030  -38.3930 C   0  0  0  0  0  0  0  0  0  0  0  0
  -26.4080  -26.5830  -39.1460 C   0  0  0  0  0  0  0  0  0  0  0  0
  -27.7110  -26.8570  -38.3920 C   0  0  0  0  0  0  0  0  0  0  0  0
  -28.8580  -26.9550  -39.3710 C   0  0  0  0  0  0  0  0  0  0  0  0
  -28.0240  -25.7840  -37.3480 C   0  0  0  0  0  0  0  0  0  0  0  0
  -23.9080  -26.1520  -38.9680 C   0  0  0  0  0  0  0  0  0  0  0  0
  -21.5900  -25.4590  -38.6120 C   0  0  0  0  0  0  0  0  0  0  0  0
  -20.7340  -26.4670  -39.3400 C   0  0  0  0  0  0  0  0  0  0  0  0
  -20.0490  -27.4440  -38.6310 C   0  0  0  0  0  0  0  0  0  0  0  0
  -19.2890  -28.3970  -39.2830 C   0  0  0  0  0  0  0  0  0  0  0  0
  -19.1990  -28.3800  -40.6630 C   0  0  0  0  0  0  0  0  0  0  0  0
  -19.8620  -27.4020  -41.3870 C   0  0  0  0  0  0  0  0  0  0  0  0
  -20.6320  -26.4550  -40.7310 C   0  0  0  0  0  0  0  0  0  0  0  0
  -67.6410  -28.0680  -35.7060 N   0  0  0  0  0  0  0  0  0  0  0  0
  -66.1800  -28.2380  -35.8320 C   0  0  0  0  0  0  0  0  0  0  0  0
  -65.6030  -30.3080  -36.9210 O   0  0  0  0  0  0  0  0  0  0  0  0
  -71.2280  -25.2060  -42.2840 Cl  0  0  0  0  0  0  0  0  0  0  0  0
  -72.6850  -25.1980  -39.4240 Cl  0  0  0  0  0  0  0  0  0  0  0  0
  -65.7160  -28.8520  -34.5060 C   0  0  0  0  0  0  0  0  0  0  0  0
  -66.0840  -28.5530  -38.2590 N   0  0  0  0  0  0  0  0  0  0  0  0
  -67.0190  -28.2820  -41.3000 O   0  0  0  0  0  0  0  0  0  0  0  0
  -67.0120  -29.2440  -33.7900 C   0  0  0  0  0  0  0  0  0  0  0  0
  -68.1130  -29.9500  -40.2480 N   0  0  0  0  0  0  0  0  0  0  0  0
  -67.9680  -28.1570  -34.2660 C   0  0  0  0  0  0  0  0  0  0  0  0
  -66.7530  -29.3390  -32.3510 N   0  0  0  0  0  0  0  0  0  0  0  0
  -68.1680  -26.8860  -36.4220 C   0  0  0  0  0  0  0  0  0  0  0  0
  -69.6350  -26.5440  -36.1560 C   0  0  0  0  0  0  0  0  0  0  0  0
  -70.0890  -25.1190  -36.5010 C   0  0  0  0  0  0  0  0  0  0  0  0
  -69.3200  -24.0130  -35.8160 C   0  0  0  0  0  0  0  0  0  0  0  0
  -69.2030  -23.9730  -34.4250 C   0  0  0  0  0  0  0  0  0  0  0  0
  -68.4520  -22.9830  -33.8060 C   0  0  0  0  0  0  0  0  0  0  0  0
  -67.8350  -22.0010  -34.5620 C   0  0  0  0  0  0  0  0  0  0  0  0
  -67.9690  -22.0130  -35.9420 C   0  0  0  0  0  0  0  0  0  0  0  0
  -68.6980  -23.0150  -36.5650 C   0  0  0  0  0  0  0  0  0  0  0  0
  -67.9520  -26.9510  -37.9510 C   0  0  0  0  0  0  0  0  0  0  0  0
  -66.5080  -27.1520  -38.4110 C   0  0  0  0  0  0  0  0  0  0  0  0
  -65.9020  -29.1300  -37.0480 C   0  0  0  0  0  0  0  0  0  0  0  0
  -65.8960  -29.3580  -39.4640 C   0  0  0  0  0  0  0  0  0  0  0  0
  -64.5200  -29.0970  -40.0890 C   0  0  0  0  0  0  0  0  0  0  0  0
  -64.0230  -30.1950  -41.0310 C   0  0  0  0  0  0  0  0  0  0  0  0
  -62.6950  -29.8070  -41.6690 C   0  0  0  0  0  0  0  0  0  0  0  0
  -63.8960  -31.5450  -40.3170 C   0  0  0  0  0  0  0  0  0  0  0  0
  -67.0570  -29.1590  -40.4400 C   0  0  0  0  0  0  0  0  0  0  0  0
  -69.2890  -29.8930  -41.1060 C   0  0  0  0  0  0  0  0  0  0  0  0
  -70.1950  -28.7440  -40.7390 C   0  0  0  0  0  0  0  0  0  0  0  0
  -70.8910  -28.7550  -39.5360 C   0  0  0  0  0  0  0  0  0  0  0  0
  -71.6760  -27.6800  -39.1550 C   0  0  0  0  0  0  0  0  0  0  0  0
  -71.7670  -26.5670  -39.9740 C   0  0  0  0  0  0  0  0  0  0  0  0
  -71.0900  -26.5500  -41.1940 C   0  0  0  0  0  0  0  0  0  0  0  0
  -70.3130  -27.6320  -41.5720 C   0  0  0  0  0  0  0  0  0  0  0  0
    0.0260  -45.1030  -10.7640 N   0  0  0  0  0  0  0  0  0  0  0  0
    1.4800  -44.9580  -10.5780 C   0  0  0  0  0  0  0  0  0  0  0  0
    2.0770  -42.9220   -9.4360 O   0  0  0  0  0  0  0  0  0  0  0  0
   -3.7770  -47.8810   -4.7410 Cl  0  0  0  0  0  0  0  0  0  0  0  0
   -5.2900  -47.8000   -7.5690 Cl  0  0  0  0  0  0  0  0  0  0  0  0
    2.0030  -44.3420  -11.8880 C   0  0  0  0  0  0  0  0  0  0  0  0
    1.4470  -44.6590   -8.1300 N   0  0  0  0  0  0  0  0  0  0  0  0
    0.4190  -44.4430   -4.9260 O   0  0  0  0  0  0  0  0  0  0  0  0
    0.7330  -43.9880  -12.6810 C   0  0  0  0  0  0  0  0  0  0  0  0
   -0.6420  -43.2080   -6.4960 N   0  0  0  0  0  0  0  0  0  0  0  0
   -0.2370  -45.0680  -12.2210 C   0  0  0  0  0  0  0  0  0  0  0  0
    0.9600  -43.8910  -14.1300 N   0  0  0  0  0  0  0  0  0  0  0  0
   -0.6130  -46.2370  -10.0600 C   0  0  0  0  0  0  0  0  0  0  0  0
   -2.1010  -46.3820  -10.3910 C   0  0  0  0  0  0  0  0  0  0  0  0
   -2.7090  -47.7840  -10.2930 C   0  0  0  0  0  0  0  0  0  0  0  0
   -1.8500  -48.8950  -10.8570 C   0  0  0  0  0  0  0  0  0  0  0  0
   -1.4580  -48.8920  -12.1970 C   0  0  0  0  0  0  0  0  0  0  0  0
   -0.6890  -49.9230  -12.7120 C   0  0  0  0  0  0  0  0  0  0  0  0
   -0.2980  -50.9740  -11.9000 C   0  0  0  0  0  0  0  0  0  0  0  0
   -0.6950  -50.9970  -10.5720 C   0  0  0  0  0  0  0  0  0  0  0  0
   -1.4570  -49.9620  -10.0510 C   0  0  0  0  0  0  0  0  0  0  0  0
   -0.4340  -46.2720   -8.5060 C   0  0  0  0  0  0  0  0  0  0  0  0
    0.9870  -46.0510   -7.9870 C   0  0  0  0  0  0  0  0  0  0  0  0
    1.7080  -44.0870   -9.3330 C   0  0  0  0  0  0  0  0  0  0  0  0
    1.6490  -43.8750   -6.9170 C   0  0  0  0  0  0  0  0  0  0  0  0
    2.9280  -44.3390   -6.2090 C   0  0  0  0  0  0  0  0  0  0  0  0
    4.2300  -43.9440   -6.9050 C   0  0  0  0  0  0  0  0  0  0  0  0
    5.3840  -44.7920   -6.4070 C   0  0  0  0  0  0  0  0  0  0  0  0
    4.5360  -42.4500   -6.7400 C   0  0  0  0  0  0  0  0  0  0  0  0
    0.4140  -43.8760   -6.0180 C   0  0  0  0  0  0  0  0  0  0  0  0
   -1.9120  -43.1410   -5.7880 C   0  0  0  0  0  0  0  0  0  0  0  0
   -2.8220  -44.2810   -6.1720 C   0  0  0  0  0  0  0  0  0  0  0  0
   -3.6230  -44.1950   -7.3070 C   0  0  0  0  0  0  0  0  0  0  0  0
   -4.3980  -45.2660   -7.7140 C   0  0  0  0  0  0  0  0  0  0  0  0
   -4.3930  -46.4390   -6.9780 C   0  0  0  0  0  0  0  0  0  0  0  0
   -3.6360  -46.5210   -5.8100 C   0  0  0  0  0  0  0  0  0  0  0  0
   -2.8400  -45.4560   -5.4250 C   0  0  0  0  0  0  0  0  0  0  0  0
  -23.2150  -87.0580    0.6020 N   0  0  0  0  0  0  0  0  0  0  0  0
  -21.7630  -87.1460    0.8440 C   0  0  0  0  0  0  0  0  0  0  0  0
  -21.1020  -86.9730    3.1450 O   0  0  0  0  0  0  0  0  0  0  0  0
  -27.0850  -94.3560    1.7040 Cl  0  0  0  0  0  0  0  0  0  0  0  0
  -28.3250  -91.8990    0.0070 Cl  0  0  0  0  0  0  0  0  0  0  0  0
  -21.2150  -85.7290    0.6250 C   0  0  0  0  0  0  0  0  0  0  0  0
  -21.7700  -89.0110    2.4590 N   0  0  0  0  0  0  0  0  0  0  0  0
  -22.4400  -91.7950    4.1080 O   0  0  0  0  0  0  0  0  0  0  0  0
  -22.4590  -84.8570    0.4100 C   0  0  0  0  0  0  0  0  0  0  0  0
  -23.7950  -90.0400    4.5780 N   0  0  0  0  0  0  0  0  0  0  0  0
  -23.4270  -85.8490   -0.2200 C   0  0  0  0  0  0  0  0  0  0  0  0
  -22.1410  -83.6670   -0.3910 N   0  0  0  0  0  0  0  0  0  0  0  0
  -23.8040  -88.2890    0.0310 C   0  0  0  0  0  0  0  0  0  0  0  0
  -25.2490  -88.1760   -0.4630 C   0  0  0  0  0  0  0  0  0  0  0  0
  -25.7310  -89.2510   -1.4510 C   0  0  0  0  0  0  0  0  0  0  0  0
  -24.8850  -89.4080   -2.6930 C   0  0  0  0  0  0  0  0  0  0  0  0
  -24.6080  -88.3170   -3.5160 C   0  0  0  0  0  0  0  0  0  0  0  0
  -23.7680  -88.4520   -4.6120 C   0  0  0  0  0  0  0  0  0  0  0  0
  -23.2060  -89.6830   -4.9120 C   0  0  0  0  0  0  0  0  0  0  0  0
  -23.4980  -90.7830   -4.1190 C   0  0  0  0  0  0  0  0  0  0  0  0
  -24.3270  -90.6460   -3.0170 C   0  0  0  0  0  0  0  0  0  0  0  0
  -23.6830  -89.5240    0.9630 C   0  0  0  0  0  0  0  0  0  0  0  0
  -22.2660  -89.8930    1.3940 C   0  0  0  0  0  0  0  0  0  0  0  0
  -21.5160  -87.6960    2.2570 C   0  0  0  0  0  0  0  0  0  0  0  0
  -21.5410  -89.5840    3.7830 C   0  0  0  0  0  0  0  0  0  0  0  0
  -20.1290  -90.1880    3.8410 C   0  0  0  0  0  0  0  0  0  0  0  0
  -19.5660  -90.4140    5.2430 C   0  0  0  0  0  0  0  0  0  0  0  0
  -18.6160  -91.5990    5.2590 C   0  0  0  0  0  0  0  0  0  0  0  0
  -18.8420  -89.1750    5.7470 C   0  0  0  0  0  0  0  0  0  0  0  0
  -22.6360  -90.5780    4.1790 C   0  0  0  0  0  0  0  0  0  0  0  0
  -24.9620  -90.8470    4.9140 C   0  0  0  0  0  0  0  0  0  0  0  0
  -25.8440  -91.1380    3.7250 C   0  0  0  0  0  0  0  0  0  0  0  0
  -26.4760  -90.1030    3.0480 C   0  0  0  0  0  0  0  0  0  0  0  0
  -27.2290  -90.3460    1.9120 C   0  0  0  0  0  0  0  0  0  0  0  0
  -27.3870  -91.6410    1.4490 C   0  0  0  0  0  0  0  0  0  0  0  0
  -26.7870  -92.6980    2.1390 C   0  0  0  0  0  0  0  0  0  0  0  0
  -26.0090  -92.4420    3.2600 C   0  0  0  0  0  0  0  0  0  0  0  0
  -45.8090  -43.6720    5.2330 N   0  0  0  0  0  0  0  0  0  0  0  0
  -44.3660  -43.9670    5.2730 C   0  0  0  0  0  0  0  0  0  0  0  0
  -43.8240  -46.1410    6.1300 O   0  0  0  0  0  0  0  0  0  0  0  0
  -49.5220  -46.6380   -0.7700 Cl  0  0  0  0  0  0  0  0  0  0  0  0
  -51.2560  -44.6000    0.9770 Cl  0  0  0  0  0  0  0  0  0  0  0  0
  -43.8960  -43.3930    6.6170 C   0  0  0  0  0  0  0  0  0  0  0  0
  -44.4010  -46.0610    3.9520 N   0  0  0  0  0  0  0  0  0  0  0  0
  -45.4660  -48.6770    2.1170 O   0  0  0  0  0  0  0  0  0  0  0  0
  -45.1930  -43.0380    7.3510 C   0  0  0  0  0  0  0  0  0  0  0  0
  -46.4930  -48.1820    4.0620 N   0  0  0  0  0  0  0  0  0  0  0  0
  -46.0610  -42.5740    6.1930 C   0  0  0  0  0  0  0  0  0  0  0  0
  -44.9260  -42.0970    8.4410 N   0  0  0  0  0  0  0  0  0  0  0  0
  -46.4340  -43.5060    3.9050 C   0  0  0  0  0  0  0  0  0  0  0  0
  -47.8960  -43.0540    3.9690 C   0  0  0  0  0  0  0  0  0  0  0  0
  -48.4210  -42.3390    2.7160 C   0  0  0  0  0  0  0  0  0  0  0  0
  -47.5890  -41.1460    2.3000 C   0  0  0  0  0  0  0  0  0  0  0  0
  -47.2920  -40.1250    3.2080 C   0  0  0  0  0  0  0  0  0  0  0  0
  -46.5440  -39.0240    2.8160 C   0  0  0  0  0  0  0  0  0  0  0  0
  -46.0870  -38.9200    1.5130 C   0  0  0  0  0  0  0  0  0  0  0  0
  -46.3750  -39.9260    0.6010 C   0  0  0  0  0  0  0  0  0  0  0  0
  -47.1140  -41.0340    0.9930 C   0  0  0  0  0  0  0  0  0  0  0  0
  -46.3170  -44.7740    3.0200 C   0  0  0  0  0  0  0  0  0  0  0  0
  -44.8990  -45.3010    2.7960 C   0  0  0  0  0  0  0  0  0  0  0  0
  -44.1650  -45.4880    5.1570 C   0  0  0  0  0  0  0  0  0  0  0  0
  -44.1790  -47.4970    3.7910 C   0  0  0  0  0  0  0  0  0  0  0  0
  -42.9140  -47.7720    2.9630 C   0  0  0  0  0  0  0  0  0  0  0  0
  -41.5840  -47.3840    3.6230 C   0  0  0  0  0  0  0  0  0  0  0  0
  -40.4650  -47.4400    2.6240 C   0  0  0  0  0  0  0  0  0  0  0  0
  -41.2340  -48.2590    4.8300 C   0  0  0  0  0  0  0  0  0  0  0  0
  -45.4390  -48.1800    3.2410 C   0  0  0  0  0  0  0  0  0  0  0  0
  -47.7900  -48.7240    3.6810 C   0  0  0  0  0  0  0  0  0  0  0  0
  -48.6570  -47.7020    2.9900 C   0  0  0  0  0  0  0  0  0  0  0  0
  -49.4090  -46.7980    3.7320 C   0  0  0  0  0  0  0  0  0  0  0  0
  -50.1870  -45.8380    3.1090 C   0  0  0  0  0  0  0  0  0  0  0  0
  -50.2280  -45.7760    1.7260 C   0  0  0  0  0  0  0  0  0  0  0  0
  -49.4770  -46.6710    0.9680 C   0  0  0  0  0  0  0  0  0  0  0  0
  -48.6970  -47.6260    1.5980 C   0  0  0  0  0  0  0  0  0  0  0  0
  -46.9600  -57.7670   -3.5200 N   0  0  0  0  0  0  0  0  0  0  0  0
  -48.4080  -57.6880   -3.2580 C   0  0  0  0  0  0  0  0  0  0  0  0
  -48.9170  -57.4510   -0.9470 O   0  0  0  0  0  0  0  0  0  0  0  0
  -43.3180  -51.0300   -3.5020 Cl  0  0  0  0  0  0  0  0  0  0  0  0
  -41.7330  -53.5640   -4.5920 Cl  0  0  0  0  0  0  0  0  0  0  0  0
  -48.8920  -59.1410   -3.1450 C   0  0  0  0  0  0  0  0  0  0  0  0
  -48.4270  -55.5340   -2.0310 N   0  0  0  0  0  0  0  0  0  0  0  0
  -47.4260  -52.6870   -0.5640 O   0  0  0  0  0  0  0  0  0  0  0  0
  -47.6150  -59.9850   -3.1340 C   0  0  0  0  0  0  0  0  0  0  0  0
  -46.4400  -54.6100    0.0760 N   0  0  0  0  0  0  0  0  0  0  0  0
  -46.6750  -59.1410   -3.9960 C   0  0  0  0  0  0  0  0  0  0  0  0
  -47.9240  -61.3370   -3.6180 N   0  0  0  0  0  0  0  0  0  0  0  0
  -46.3820  -56.6480   -4.3000 C   0  0  0  0  0  0  0  0  0  0  0  0
  -44.9130  -56.8500   -4.6790 C   0  0  0  0  0  0  0  0  0  0  0  0
  -44.3730  -55.9880   -5.8290 C   0  0  0  0  0  0  0  0  0  0  0  0
  -45.1450  -56.0880   -7.1250 C   0  0  0  0  0  0  0  0  0  0  0  0
  -45.4060  -57.3270   -7.7110 C   0  0  0  0  0  0  0  0  0  0  0  0
  -46.1420  -57.4150   -8.8830 C   0  0  0  0  0  0  0  0  0  0  0  0
  -46.6140  -56.2670   -9.4980 C   0  0  0  0  0  0  0  0  0  0  0  0
  -46.3450  -55.0290   -8.9340 C   0  0  0  0  0  0  0  0  0  0  0  0
  -45.6180  -54.9400   -7.7570 C   0  0  0  0  0  0  0  0  0  0  0  0
  -46.5490  -55.2340   -3.6570 C   0  0  0  0  0  0  0  0  0  0  0  0
  -47.9690  -54.8480   -3.2500 C   0  0  0  0  0  0  0  0  0  0  0  0
  -48.6180  -56.8770   -1.9760 C   0  0  0  0  0  0  0  0  0  0  0  0
  -48.6920  -54.7270   -0.8420 C   0  0  0  0  0  0  0  0  0  0  0  0
  -49.9390  -53.8580   -1.0560 C   0  0  0  0  0  0  0  0  0  0  0  0
  -51.2810  -54.5900   -0.9720 C   0  0  0  0  0  0  0  0  0  0  0  0
  -52.3950  -53.7280   -1.5230 C   0  0  0  0  0  0  0  0  0  0  0  0
  -51.6210  -55.0080    0.4640 C   0  0  0  0  0  0  0  0  0  0  0  0
  -47.4580  -53.9100   -0.4310 C   0  0  0  0  0  0  0  0  0  0  0  0
  -45.1430  -54.0100    0.3580 C   0  0  0  0  0  0  0  0  0  0  0  0
  -44.2890  -53.8800   -0.8790 C   0  0  0  0  0  0  0  0  0  0  0  0
  -43.5460  -54.9610   -1.3380 C   0  0  0  0  0  0  0  0  0  0  0  0
  -42.7800  -54.8640   -2.4860 C   0  0  0  0  0  0  0  0  0  0  0  0
  -42.7330  -53.6710   -3.1820 C   0  0  0  0  0  0  0  0  0  0  0  0
  -43.4580  -52.5750   -2.7280 C   0  0  0  0  0  0  0  0  0  0  0  0
  -44.2410  -52.6840   -1.5920 C   0  0  0  0  0  0  0  0  0  0  0  0
  1  2  1  0  0  0  0
  2  6  1  0  0  0  0
  6  9  1  0  0  0  0
  1 11  1  0  0  0  0
  9 11  1  0  0  0  0
  9 12  1  0  0  0  0
  1 13  1  0  0  0  0
 13 14  1  0  0  0  0
 14 15  1  0  0  0  0
 15 16  1  0  0  0  0
 16 17  2  0  0  0  0
 17 18  1  0  0  0  0
 18 19  2  0  0  0  0
 19 20  1  0  0  0  0
 16 21  1  0  0  0  0
 20 21  2  0  0  0  0
 13 22  1  0  0  0  0
  7 23  1  0  0  0  0
 22 23  1  0  0  0  0
  2 24  1  0  0  0  0
  3 24  2  0  0  0  0
  7 24  1  0  0  0  0
  7 25  1  0  0  0  0
 25 26  1  0  0  0  0
 26 27  1  0  0  0  0
 27 28  1  0  0  0  0
 27 29  1  0  0  0  0
  8 30  2  0  0  0  0
 10 30  1  0  0  0  0
 25 30  1  0  0  0  0
 10 31  1  0  0  0  0
 31 32  1  0  0  0  0
 32 33  2  0  0  0  0
 33 34  1  0  0  0  0
  5 35  1  0  0  0  0
 34 35  2  0  0  0  0
  4 36  1  0  0  0  0
 35 36  1  0  0  0  0
 32 37  1  0  0  0  0
 36 37  2  0  0  0  0
 38 39  1  0  0  0  0
 39 43  1  0  0  0  0
 43 46  1  0  0  0  0
 38 48  1  0  0  0  0
 46 48  1  0  0  0  0
 46 49  1  0  0  0  0
 38 50  1  0  0  0  0
 50 51  1  0  0  0  0
 51 52  1  0  0  0  0
 52 53  1  0  0  0  0
 53 54  2  0  0  0  0
 54 55  1  0  0  0  0
 55 56  2  0  0  0  0
 56 57  1  0  0  0  0
 53 58  1  0  0  0  0
 57 58  2  0  0  0  0
 50 59  1  0  0  0  0
 44 60  1  0  0  0  0
 59 60  1  0  0  0  0
 39 61  1  0  0  0  0
 40 61  2  0  0  0  0
 44 61  1  0  0  0  0
 44 62  1  0  0  0  0
 62 63  1  0  0  0  0
 63 64  1  0  0  0  0
 64 65  1  0  0  0  0
 64 66  1  0  0  0  0
 45 67  2  0  0  0  0
 47 67  1  0  0  0  0
 62 67  1  0  0  0  0
 47 68  1  0  0  0  0
 68 69  1  0  0  0  0
 69 70  2  0  0  0  0
 70 71  1  0  0  0  0
 42 72  1  0  0  0  0
 71 72  2  0  0  0  0
 41 73  1  0  0  0  0
 72 73  1  0  0  0  0
 69 74  1  0  0  0  0
 73 74  2  0  0  0  0
 75 76  1  0  0  0  0
 76 80  1  0  0  0  0
 80 83  1  0  0  0  0
 75 85  1  0  0  0  0
 83 85  1  0  0  0  0
 83 86  1  0  0  0  0
 75 87  1  0  0  0  0
 87 88  1  0  0  0  0
 88 89  1  0  0  0  0
 89 90  1  0  0  0  0
 90 91  2  0  0  0  0
 91 92  1  0  0  0  0
 92 93  2  0  0  0  0
 93 94  1  0  0  0  0
 90 95  1  0  0  0  0
 94 95  2  0  0  0  0
 87 96  1  0  0  0  0
 81 97  1  0  0  0  0
 96 97  1  0  0  0  0
 76 98  1  0  0  0  0
 77 98  2  0  0  0  0
 81 98  1  0  0  0  0
 81 99  1  0  0  0  0
 99100  1  0  0  0  0
100101  1  0  0  0  0
101102  1  0  0  0  0
101103  1  0  0  0  0
 82104  2  0  0  0  0
 84104  1  0  0  0  0
 99104  1  0  0  0  0
 84105  1  0  0  0  0
105106  1  0  0  0  0
106107  2  0  0  0  0
107108  1  0  0  0  0
 79109  1  0  0  0  0
108109  2  0  0  0  0
 78110  1  0  0  0  0
109110  1  0  0  0  0
106111  1  0  0  0  0
110111  2  0  0  0  0
112113  1  0  0  0  0
113117  1  0  0  0  0
117120  1  0  0  0  0
112122  1  0  0  0  0
120122  1  0  0  0  0
120123  1  0  0  0  0
112124  1  0  0  0  0
124125  1  0  0  0  0
125126  1  0  0  0  0
126127  1  0  0  0  0
127128  2  0  0  0  0
128129  1  0  0  0  0
129130  2  0  0  0  0
130131  1  0  0  0  0
127132  1  0  0  0  0
131132  2  0  0  0  0
124133  1  0  0  0  0
118134  1  0  0  0  0
133134  1  0  0  0  0
113135  1  0  0  0  0
114135  2  0  0  0  0
118135  1  0  0  0  0
118136  1  0  0  0  0
136137  1  0  0  0  0
137138  1  0  0  0  0
138139  1  0  0  0  0
138140  1  0  0  0  0
119141  2  0  0  0  0
121141  1  0  0  0  0
136141  1  0  0  0  0
121142  1  0  0  0  0
142143  1  0  0  0  0
143144  2  0  0  0  0
144145  1  0  0  0  0
116146  1  0  0  0  0
145146  2  0  0  0  0
115147  1  0  0  0  0
146147  1  0  0  0  0
143148  1  0  0  0  0
147148  2  0  0  0  0
149150  1  0  0  0  0
150154  1  0  0  0  0
154157  1  0  0  0  0
149159  1  0  0  0  0
157159  1  0  0  0  0
157160  1  0  0  0  0
149161  1  0  0  0  0
161162  1  0  0  0  0
162163  1  0  0  0  0
163164  1  0  0  0  0
164165  2  0  0  0  0
165166  1  0  0  0  0
166167  2  0  0  0  0
167168  1  0  0  0  0
164169  1  0  0  0  0
168169  2  0  0  0  0
161170  1  0  0  0  0
155171  1  0  0  0  0
170171  1  0  0  0  0
150172  1  0  0  0  0
151172  2  0  0  0  0
155172  1  0  0  0  0
155173  1  0  0  0  0
173174  1  0  0  0  0
174175  1  0  0  0  0
175176  1  0  0  0  0
175177  1  0  0  0  0
156178  2  0  0  0  0
158178  1  0  0  0  0
173178  1  0  0  0  0
158179  1  0  0  0  0
179180  1  0  0  0  0
180181  2  0  0  0  0
181182  1  0  0  0  0
153183  1  0  0  0  0
182183  2  0  0  0  0
152184  1  0  0  0  0
183184  1  0  0  0  0
180185  1  0  0  0  0
184185  2  0  0  0  0
186187  1  0  0  0  0
187191  1  0  0  0  0
191194  1  0  0  0  0
186196  1  0  0  0  0
194196  1  0  0  0  0
194197  1  0  0  0  0
186198  1  0  0  0  0
198199  1  0  0  0  0
199200  1  0  0  0  0
200201  1  0  0  0  0
201202  2  0  0  0  0
202203  1  0  0  0  0
203204  2  0  0  0  0
204205  1  0  0  0  0
201206  1  0  0  0  0
205206  2  0  0  0  0
198207  1  0  0  0  0
192208  1  0  0  0  0
207208  1  0  0  0  0
187209  1  0  0  0  0
188209  2  0  0  0  0
192209  1  0  0  0  0
192210  1  0  0  0  0
210211  1  0  0  0  0
211212  1  0  0  0  0
212213  1  0  0  0  0
212214  1  0  0  0  0
193215  2  0  0  0  0
195215  1  0  0  0  0
210215  1  0  0  0  0
195216  1  0  0  0  0
216217  1  0  0  0  0
217218  2  0  0  0  0
218219  1  0  0  0  0
190220  1  0  0  0  0
219220  2  0  0  0  0
189221  1  0  0  0  0
220221  1  0  0  0  0
217222  1  0  0  0  0
221222  2  0  0  0  0
223224  1  0  0  0  0
224228  1  0  0  0  0
228231  1  0  0  0  0
223233  1  0  0  0  0
231233  1  0  0  0  0
231234  1  0  0  0  0
223235  1  0  0  0  0
235236  1  0  0  0  0
236237  1  0  0  0  0
237238  1  0  0  0  0
238239  2  0  0  0  0
239240  1  0  0  0  0
240241  2  0  0  0  0
241242  1  0  0  0  0
238243  1  0  0  0  0
242243  2  0  0  0  0
235244  1  0  0  0  0
229245  1  0  0  0  0
244245  1  0  0  0  0
224246  1  0  0  0  0
225246  2  0  0  0  0
229246  1  0  0  0  0
229247  1  0  0  0  0
247248  1  0  0  0  0
248249  1  0  0  0  0
249250  1  0  0  0  0
249251  1  0  0  0  0
230252  2  0  0  0  0
232252  1  0  0  0  0
247252  1  0  0  0  0
232253  1  0  0  0  0
253254  1  0  0  0  0
254255  2  0  0  0  0
255256  1  0  0  0  0
227257  1  0  0  0  0
256257  2  0  0  0  0
226258  1  0  0  0  0
257258  1  0  0  0  0
254259  1  0  0  0  0
258259  2  0  0  0  0
260261  1  0  0  0  0
261265  1  0  0  0  0
265268  1  0  0  0  0
260270  1  0  0  0  0
268270  1  0  0  0  0
268271  1  0  0  0  0
260272  1  0  0  0  0
272273  1  0  0  0  0
273274  1  0  0  0  0
274275  1  0  0  0  0
275276  2  0  0  0  0
276277  1  0  0  0  0
277278  2  0  0  0  0
278279  1  0  0  0  0
275280  1  0  0  0  0
279280  2  0  0  0  0
272281  1  0  0  0  0
266282  1  0  0  0  0
281282  1  0  0  0  0
261283  1  0  0  0  0
262283  2  0  0  0  0
266283  1  0  0  0  0
266284  1  0  0  0  0
284285  1  0  0  0  0
285286  1  0  0  0  0
286287  1  0  0  0  0
286288  1  0  0  0  0
267289  2  0  0  0  0
269289  1  0  0  0  0
284289  1  0  0  0  0
269290  1  0  0  0  0
290291  1  0  0  0  0
291292  2  0  0  0  0
292293  1  0  0  0  0
264294  1  0  0  0  0
293294  2  0  0  0  0
263295  1  0  0  0  0
294295  1  0  0  0  0
291296  1  0  0  0  0
295296  2  0  0  0  0
297298  1  0  0  0  0
298302  1  0  0  0  0
302305  1  0  0  0  0
297307  1  0  0  0  0
305307  1  0  0  0  0
305308  1  0  0  0  0
297309  1  0  0  0  0
309310  1  0  0  0  0
310311  1  0  0  0  0
311312  1  0  0  0  0
312313  2  0  0  0  0
313314  1  0  0  0  0
314315  2  0  0  0  0
315316  1  0  0  0  0
312317  1  0  0  0  0
316317  2  0  0  0  0
309318  1  0  0  0  0
303319  1  0  0  0  0
318319  1  0  0  0  0
298320  1  0  0  0  0
299320  2  0  0  0  0
303320  1  0  0  0  0
303321  1  0  0  0  0
321322  1  0  0  0  0
322323  1  0  0  0  0
323324  1  0  0  0  0
323325  1  0  0  0  0
304326  2  0  0  0  0
306326  1  0  0  0  0
321326  1  0  0  0  0
306327  1  0  0  0  0
327328  1  0  0  0  0
328329  2  0  0  0  0
329330  1  0  0  0  0
301331  1  0  0  0  0
330331  2  0  0  0  0
300332  1  0  0  0  0
331332  1  0  0  0  0
328333  1  0  0  0  0
332333  2  0  0  0  0
334335  1  0  0  0  0
335339  1  0  0  0  0
339342  1  0  0  0  0
334344  1  0  0  0  0
342344  1  0  0  0  0
342345  1  0  0  0  0
334346  1  0  0  0  0
346347  1  0  0  0  0
347348  1  0  0  0  0
348349  1  0  0  0  0
349350  2  0  0  0  0
350351  1  0  0  0  0
351352  2  0  0  0  0
352353  1  0  0  0  0
349354  1  0  0  0  0
353354  2  0  0  0  0
346355  1  0  0  0  0
340356  1  0  0  0  0
355356  1  0  0  0  0
335357  1  0  0  0  0
336357  2  0  0  0  0
340357  1  0  0  0  0
340358  1  0  0  0  0
358359  1  0  0  0  0
359360  1  0  0  0  0
360361  1  0  0  0  0
360362  1  0  0  0  0
341363  2  0  0  0  0
343363  1  0  0  0  0
358363  1  0  0  0  0
343364  1  0  0  0  0
364365  1  0  0  0  0
365366  2  0  0  0  0
366367  1  0  0  0  0
338368  1  0  0  0  0
367368  2  0  0  0  0
337369  1  0  0  0  0
368369  1  0  0  0  0
365370  1  0  0  0  0
369370  2  0  0  0  0
371372  1  0  0  0  0
372376  1  0  0  0  0
376379  1  0  0  0  0
371381  1  0  0  0  0
379381  1  0  0  0  0
379382  1  0  0  0  0
371383  1  0  0  0  0
383384  1  0  0  0  0
384385  1  0  0  0  0
385386  1  0  0  0  0
386387  2  0  0  0  0
387388  1  0  0  0  0
388389  2  0  0  0  0
389390  1  0  0  0  0
386391  1  0  0  0  0
390391  2  0  0  0  0
383392  1  0  0  0  0
377393  1  0  0  0  0
392393  1  0  0  0  0
372394  1  0  0  0  0
373394  2  0  0  0  0
377394  1  0  0  0  0
377395  1  0  0  0  0
395396  1  0  0  0  0
396397  1  0  0  0  0
397398  1  0  0  0  0
397399  1  0  0  0  0
378400  2  0  0  0  0
380400  1  0  0  0  0
395400  1  0  0  0  0
380401  1  0  0  0  0
401402  1  0  0  0  0
402403  2  0  0  0  0
403404  1  0  0  0  0
375405  1  0  0  0  0
404405  2  0  0  0  0
374406  1  0  0  0  0
405406  1  0  0  0  0
402407  1  0  0  0  0
406407  2  0  0  0  0
408409  1  0  0  0  0
409413  1  0  0  0  0
413416  1  0  0  0  0
408418  1  0  0  0  0
416418  1  0  0  0  0
416419  1  0  0  0  0
408420  1  0  0  0  0
420421  1  0  0  0  0
421422  1  0  0  0  0
422423  1  0  0  0  0
423424  2  0  0  0  0
424425  1  0  0  0  0
425426  2  0  0  0  0
426427  1  0  0  0  0
423428  1  0  0  0  0
427428  2  0  0  0  0
420429  1  0  0  0  0
414430  1  0  0  0  0
429430  1  0  0  0  0
409431  1  0  0  0  0
410431  2  0  0  0  0
414431  1  0  0  0  0
414432  1  0  0  0  0
432433  1  0  0  0  0
433434  1  0  0  0  0
434435  1  0  0  0  0
434436  1  0  0  0  0
415437  2  0  0  0  0
417437  1  0  0  0  0
432437  1  0  0  0  0
417438  1  0  0  0  0
438439  1  0  0  0  0
439440  2  0  0  0  0
440441  1  0  0  0  0
412442  1  0  0  0  0
441442  2  0  0  0  0
411443  1  0  0  0  0
442443  1  0  0  0  0
439444  1  0  0  0  0
443444  2  0  0  0  0
M  END
$$$$
