9B6G
  PyMOL3.1          3D                             0

 54 56  0  0  0  0  0  0  0  0999 V2000
  137.1330  170.7980  205.3400 O   0  0  0  0  0  0  0  0  0  0  0  0
  136.5090  171.2170  206.2550 C   0  0  0  0  0  0  0  0  0  0  0  0
  135.3000  170.5160  206.6680 N   0  0  0  0  0  0  0  0  0  0  0  0
  134.4780  170.9630  207.7790 C   0  0  0  0  0  0  0  0  0  0  0  0
  133.3630  171.8940  207.3060 C   0  0  0  0  0  0  0  0  0  0  0  0
  132.0390  171.9220  207.8460 C   0  0  0  0  0  0  0  0  0  0  0  0
  131.2070  172.9790  207.1270 C   0  0  0  0  0  0  0  0  0  0  0  0
  132.0060  173.6260  206.1290 C   0  0  0  0  0  0  0  0  0  0  0  0
  133.4960  172.9970  206.1310 S   0  0  0  0  0  0  0  0  0  0  0  0
  134.9090  169.3170  205.9510 C   0  0  0  0  0  0  0  0  0  0  0  0
  135.5200  168.0840  206.6140 C   0  0  0  0  0  0  0  0  0  0  0  0
  135.5220  166.8680  205.6870 C   0  0  0  0  0  0  0  0  0  0  0  0
  135.6630  165.6440  206.4510 N   0  0  0  0  0  0  0  0  0  0  0  0
  136.9980  172.4880  206.9500 C   0  0  0  0  0  0  0  0  0  0  0  0
  137.5360  172.4410  208.2290 C   0  0  0  0  0  0  0  0  0  0  0  0
  137.6270  171.2170  208.9120 O   0  0  0  0  0  0  0  0  0  0  0  0
  137.2960  171.2890  210.2730 C   0  0  0  0  0  0  0  0  0  0  0  0
  137.1030  169.8770  210.8180 C   0  0  0  0  0  0  0  0  0  0  0  0
  138.0700  169.3180  211.6340 C   0  0  0  0  0  0  0  0  0  0  0  0
  137.8990  168.0390  212.1330 C   0  0  0  0  0  0  0  0  0  0  0  0
  138.9660  167.4220  213.0300 C   0  0  0  0  0  0  0  0  0  0  0  0
  136.7600  167.3190  211.8160 C   0  0  0  0  0  0  0  0  0  0  0  0
  135.7930  167.8790  211.0010 C   0  0  0  0  0  0  0  0  0  0  0  0
  135.9640  169.1580  210.5020 C   0  0  0  0  0  0  0  0  0  0  0  0
  137.9750  173.6100  208.8330 C   0  0  0  0  0  0  0  0  0  0  0  0
  137.8840  174.8200  208.1630 C   0  0  0  0  0  0  0  0  0  0  0  0
  137.3530  174.8640  206.8850 C   0  0  0  0  0  0  0  0  0  0  0  0
  136.9120  173.7000  206.2790 C   0  0  0  0  0  0  0  0  0  0  0  0
  134.0220  170.0940  208.2430 H   0  0  0  0  0  0  0  0  0  0  0  0
  135.0810  171.4740  208.5190 H   0  0  0  0  0  0  0  0  0  0  0  0
  131.6810  171.2850  208.6450 H   0  0  0  0  0  0  0  0  0  0  0  0
  130.1700  173.2070  207.3390 H   0  0  0  0  0  0  0  0  0  0  0  0
  131.6630  174.4170  205.4720 H   0  0  0  0  0  0  0  0  0  0  0  0
  133.8270  169.2300  205.9640 H   0  0  0  0  0  0  0  0  0  0  0  0
  135.2500  169.3810  204.9250 H   0  0  0  0  0  0  0  0  0  0  0  0
  136.5420  168.3100  206.9000 H   0  0  0  0  0  0  0  0  0  0  0  0
  134.9490  167.8480  207.5050 H   0  0  0  0  0  0  0  0  0  0  0  0
  136.3490  166.9520  204.9890 H   0  0  0  0  0  0  0  0  0  0  0  0
  134.5900  166.8390  205.1330 H   0  0  0  0  0  0  0  0  0  0  0  0
  135.4970  165.8320  207.4210 H   0  0  0  0  0  0  0  0  0  0  0  0
  135.0000  164.9650  206.1230 H   0  0  0  0  0  0  0  0  0  0  0  0
  136.3800  171.8540  210.3950 H   0  0  0  0  0  0  0  0  0  0  0  0
  138.0960  171.7740  210.8210 H   0  0  0  0  0  0  0  0  0  0  0  0
  138.9620  169.8820  211.8820 H   0  0  0  0  0  0  0  0  0  0  0  0
  139.4920  168.2080  213.5590 H   0  0  0  0  0  0  0  0  0  0  0  0
  139.6710  166.8590  212.4240 H   0  0  0  0  0  0  0  0  0  0  0  0
  138.4950  166.7570  213.7470 H   0  0  0  0  0  0  0  0  0  0  0  0
  136.6270  166.3170  212.2060 H   0  0  0  0  0  0  0  0  0  0  0  0
  134.9020  167.3160  210.7540 H   0  0  0  0  0  0  0  0  0  0  0  0
  135.2060  169.5960  209.8650 H   0  0  0  0  0  0  0  0  0  0  0  0
  138.3920  173.5800  209.8330 H   0  0  0  0  0  0  0  0  0  0  0  0
  138.2300  175.7300  208.6390 H   0  0  0  0  0  0  0  0  0  0  0  0
  137.2810  175.8090  206.3600 H   0  0  0  0  0  0  0  0  0  0  0  0
  136.4950  173.7350  205.2790 H   0  0  0  0  0  0  0  0  0  0  0  0
  1  2  2  0  0  0  0
  2  3  1  0  0  0  0
  3  4  1  0  0  0  0
  4  5  1  0  0  0  0
  5  6  2  0  0  0  0
  6  7  1  0  0  0  0
  7  8  2  0  0  0  0
  5  9  1  0  0  0  0
  8  9  1  0  0  0  0
  3 10  1  0  0  0  0
 10 11  1  0  0  0  0
 11 12  1  0  0  0  0
 12 13  1  0  0  0  0
  2 14  1  0  0  0  0
 14 15  2  0  0  0  0
 15 16  1  0  0  0  0
 16 17  1  0  0  0  0
 17 18  1  0  0  0  0
 18 19  1  0  0  0  0
 19 20  2  0  0  0  0
 20 21  1  0  0  0  0
 20 22  1  0  0  0  0
 22 23  2  0  0  0  0
 18 24  2  0  0  0  0
 23 24  1  0  0  0  0
 15 25  1  0  0  0  0
 25 26  2  0  0  0  0
 26 27  1  0  0  0  0
 14 28  1  0  0  0  0
 27 28  2  0  0  0  0
  4 29  1  0  0  0  0
  4 30  1  0  0  0  0
  6 31  1  0  0  0  0
  7 32  1  0  0  0  0
  8 33  1  0  0  0  0
 10 34  1  0  0  0  0
 10 35  1  0  0  0  0
 11 36  1  0  0  0  0
 11 37  1  0  0  0  0
 12 38  1  0  0  0  0
 12 39  1  0  0  0  0
 13 40  1  0  0  0  0
 13 41  1  0  0  0  0
 17 42  1  0  0  0  0
 17 43  1  0  0  0  0
 19 44  1  0  0  0  0
 21 45  1  0  0  0  0
 21 46  1  0  0  0  0
 21 47  1  0  0  0  0
 22 48  1  0  0  0  0
 23 49  1  0  0  0  0
 24 50  1  0  0  0  0
 25 51  1  0  0  0  0
 26 52  1  0  0  0  0
 27 53  1  0  0  0  0
 28 54  1  0  0  0  0
M  END
$$$$
