8BK4
  PyMOL3.1          3D                             0

 57 60  0  0  0  0  0  0  0  0999 V2000
   11.2010   10.6850   16.5370 Cl  0  0  0  0  0  0  0  0  0  0  0  0
   14.8640    7.1430   18.2370 Cl  0  0  0  0  0  0  0  0  0  0  0  0
   11.6050    9.1980   17.3500 C   0  0  0  0  0  0  0  0  0  0  0  0
    9.1310    6.8410   20.5750 N   0  0  0  0  0  0  0  0  0  0  0  0
   10.2190    4.9640   19.4480 O   0  0  0  0  0  0  0  0  0  0  0  0
    9.6070    6.2210   19.1670 S   0  0  0  0  0  0  0  0  0  0  0  0
   10.5860    8.4140   17.8590 C   0  0  0  0  0  0  0  0  0  0  0  0
    8.5510    9.5510   21.6720 N   0  0  0  0  0  0  0  0  0  0  0  0
   12.1690    9.1440   23.5980 O   0  0  0  0  0  0  0  0  0  0  0  0
   10.8970    7.2370   18.5160 C   0  0  0  0  0  0  0  0  0  0  0  0
    9.5480   12.9550   22.0090 N   0  0  0  0  0  0  0  0  0  0  0  0
    6.3480    9.0280   21.6140 O   0  0  0  0  0  0  0  0  0  0  0  0
    7.7710    7.3160   20.8290 C   0  0  0  0  0  0  0  0  0  0  0  0
    8.4910    6.2910   18.2830 O   0  0  0  0  0  0  0  0  0  0  0  0
    7.1730    6.2730   21.7800 C   0  0  0  0  0  0  0  0  0  0  0  0
    8.0180    6.0880   23.0410 C   0  0  0  0  0  0  0  0  0  0  0  0
    9.4360    5.6980   22.6670 C   0  0  0  0  0  0  0  0  0  0  0  0
   10.0570    6.7180   21.7190 C   0  0  0  0  0  0  0  0  0  0  0  0
   10.4160    8.0540   22.3890 C   0  0  0  0  0  0  0  0  0  0  0  0
   11.9060    8.0830   22.6880 C   0  0  0  0  0  0  0  0  0  0  0  0
    9.9890    9.2550   21.5380 C   0  0  0  0  0  0  0  0  0  0  0  0
    8.2020   10.9140   22.1570 C   0  0  0  0  0  0  0  0  0  0  0  0
    8.4570   11.0680   23.6480 C   0  0  0  0  0  0  0  0  0  0  0  0
    8.9100   11.9780   21.3440 C   0  0  0  0  0  0  0  0  0  0  0  0
   10.1850   13.8910   21.2810 C   0  0  0  0  0  0  0  0  0  0  0  0
   10.2000   13.9080   19.9100 C   0  0  0  0  0  0  0  0  0  0  0  0
    9.5390   12.9120   19.2440 C   0  0  0  0  0  0  0  0  0  0  0  0
    8.8940   11.9350   19.9740 C   0  0  0  0  0  0  0  0  0  0  0  0
    7.5170    8.7010   21.4140 C   0  0  0  0  0  0  0  0  0  0  0  0
   12.2160    6.8340   18.6260 C   0  0  0  0  0  0  0  0  0  0  0  0
   13.2060    7.6460   18.1010 C   0  0  0  0  0  0  0  0  0  0  0  0
   12.9300    8.8300   17.4520 C   0  0  0  0  0  0  0  0  0  0  0  0
    9.6850    8.6780   17.7590 H   0  0  0  0  0  0  0  0  0  0  0  0
    7.3880    7.4070   19.9220 H   0  0  0  0  0  0  0  0  0  0  0  0
    7.1020    5.4090   21.3080 H   0  0  0  0  0  0  0  0  0  0  0  0
    6.2630    6.5550   22.0390 H   0  0  0  0  0  0  0  0  0  0  0  0
    7.6220    5.3900   23.6050 H   0  0  0  0  0  0  0  0  0  0  0  0
    8.0310    6.9230   23.5560 H   0  0  0  0  0  0  0  0  0  0  0  0
    9.9830    5.6340   23.4770 H   0  0  0  0  0  0  0  0  0  0  0  0
    9.4300    4.8180   22.2350 H   0  0  0  0  0  0  0  0  0  0  0  0
   10.9040    6.3970   21.3470 H   0  0  0  0  0  0  0  0  0  0  0  0
    9.8940    8.1490   23.2270 H   0  0  0  0  0  0  0  0  0  0  0  0
   12.1930    7.2280   23.0760 H   0  0  0  0  0  0  0  0  0  0  0  0
   12.4190    8.2140   21.8610 H   0  0  0  0  0  0  0  0  0  0  0  0
   13.0050    9.2120   23.7090 H   0  0  0  0  0  0  0  0  0  0  0  0
   10.1930    9.0710   20.5980 H   0  0  0  0  0  0  0  0  0  0  0  0
   10.5050   10.0420   21.8120 H   0  0  0  0  0  0  0  0  0  0  0  0
    7.2280   11.0350   22.0380 H   0  0  0  0  0  0  0  0  0  0  0  0
    9.4020   10.9260   23.8330 H   0  0  0  0  0  0  0  0  0  0  0  0
    8.2040   11.9640   23.9300 H   0  0  0  0  0  0  0  0  0  0  0  0
    7.9290   10.4140   24.1380 H   0  0  0  0  0  0  0  0  0  0  0  0
   10.6460   14.5710   21.7440 H   0  0  0  0  0  0  0  0  0  0  0  0
   10.6530   14.5880   19.4400 H   0  0  0  0  0  0  0  0  0  0  0  0
    9.5240   12.8930   18.3010 H   0  0  0  0  0  0  0  0  0  0  0  0
    8.4470   11.2450   19.5380 H   0  0  0  0  0  0  0  0  0  0  0  0
   12.4360    6.0200   19.0500 H   0  0  0  0  0  0  0  0  0  0  0  0
   13.6170    9.3650   17.0920 H   0  0  0  0  0  0  0  0  0  0  0  0
  1  3  1  0  0  0  0
  4  6  1  0  0  0  0
  5  6  2  0  0  0  0
  3  7  1  0  0  0  0
  6 10  1  0  0  0  0
  7 10  2  0  0  0  0
  4 13  1  0  0  0  0
  6 14  2  0  0  0  0
 13 15  1  0  0  0  0
 15 16  1  0  0  0  0
 16 17  1  0  0  0  0
  4 18  1  0  0  0  0
 17 18  1  0  0  0  0
 18 19  1  0  0  0  0
  9 20  1  0  0  0  0
 19 20  1  0  0  0  0
  8 21  1  0  0  0  0
 19 21  1  0  0  0  0
  8 22  1  0  0  0  0
 22 23  1  0  0  0  0
 11 24  1  0  0  0  0
 22 24  1  0  0  0  0
 11 25  2  0  0  0  0
 25 26  1  0  0  0  0
 26 27  2  0  0  0  0
 24 28  2  0  0  0  0
 27 28  1  0  0  0  0
  8 29  1  0  0  0  0
 12 29  2  0  0  0  0
 13 29  1  0  0  0  0
 10 30  1  0  0  0  0
  2 31  1  0  0  0  0
 30 31  2  0  0  0  0
  3 32  2  0  0  0  0
 31 32  1  0  0  0  0
  7 33  1  0  0  0  0
 13 34  1  0  0  0  0
 15 35  1  0  0  0  0
 15 36  1  0  0  0  0
 16 37  1  0  0  0  0
 16 38  1  0  0  0  0
 17 39  1  0  0  0  0
 17 40  1  0  0  0  0
 18 41  1  0  0  0  0
 19 42  1  0  0  0  0
 20 43  1  0  0  0  0
 20 44  1  0  0  0  0
  9 45  1  0  0  0  0
 21 46  1  0  0  0  0
 21 47  1  0  0  0  0
 22 48  1  0  0  0  0
 23 49  1  0  0  0  0
 23 50  1  0  0  0  0
 23 51  1  0  0  0  0
 25 52  1  0  0  0  0
 26 53  1  0  0  0  0
 27 54  1  0  0  0  0
 28 55  1  0  0  0  0
 30 56  1  0  0  0  0
 32 57  1  0  0  0  0
M  END
$$$$
