9EPV
  PyMOL3.1          3D                             0

 39 44  0  0  0  0  0  0  0  0999 V2000
   37.3660   -4.6880    2.7660 Cl  0  0  0  0  0  0  0  0  0  0  0  0
   38.0130   -4.0150    1.2950 C   0  0  0  0  0  0  0  0  0  0  0  0
   39.1520   -3.2420    1.4310 C   0  0  0  0  0  0  0  0  0  0  0  0
   39.8300   -2.7840    0.3090 C   0  0  0  0  0  0  0  0  0  0  0  0
   41.1550   -2.0860    0.4470 C   0  0  0  0  0  0  0  0  0  0  0  0
   41.2080   -0.7980   -0.3160 N   0  3  0  0  0  0  0  0  0  0  0  0
   42.5950   -0.5290   -0.8390 C   0  0  0  0  0  0  0  0  0  0  0  0
   43.6310   -0.2520    0.2130 C   0  0  0  0  0  0  0  0  0  0  0  0
   44.1420    0.9450   -0.6150 C   0  0  0  0  0  0  0  0  0  0  0  0
   44.3830    2.2510    0.1620 C   0  0  0  0  0  0  0  0  0  0  0  0
   44.7800    3.3790   -0.7770 C   0  0  0  0  0  0  0  0  0  0  0  0
   45.9810    2.9790   -1.5380 N   0  0  0  0  0  0  0  0  0  0  0  0
   46.9290    4.1670   -2.1520 S   0  0  0  0  0  0  0  0  0  0  0  0
   46.2080    4.6850   -3.6660 C   0  0  0  0  0  0  0  0  0  0  0  0
   45.1640    5.6140   -3.6510 C   0  0  0  0  0  0  0  0  0  0  0  0
   44.5570    5.9860   -4.8420 C   0  0  0  0  0  0  0  0  0  0  0  0
   45.0180    5.4190   -6.0290 C   0  0  0  0  0  0  0  0  0  0  0  0
   44.6910    5.6500   -7.3650 N   0  0  0  0  0  0  0  0  0  0  0  0
   43.6490    6.5590   -7.8400 C   0  0  0  0  0  0  0  0  0  0  0  0
   45.5050    4.8980   -8.1920 C   0  0  0  0  0  0  0  0  0  0  0  0
   46.3420    4.1960   -7.3610 N   0  0  0  0  0  0  0  0  0  0  0  0
   47.3830    3.2840   -7.8360 C   0  0  0  0  0  0  0  0  0  0  0  0
   45.4970    4.8660   -9.4110 O   0  0  0  0  0  0  0  0  0  0  0  0
   46.0590    4.5010   -6.0250 C   0  0  0  0  0  0  0  0  0  0  0  0
   46.6650    4.1200   -4.8450 C   0  0  0  0  0  0  0  0  0  0  0  0
   46.8270    5.2710   -1.2530 O   0  0  0  0  0  0  0  0  0  0  0  0
   48.2040    3.5800   -2.4300 O   0  0  0  0  0  0  0  0  0  0  0  0
   45.7310    1.7880   -2.3720 C   0  0  0  0  0  0  0  0  0  0  0  0
   45.3880    0.6260   -1.4540 C   0  0  0  0  0  0  0  0  0  0  0  0
   42.8060    0.9110   -1.3790 C   0  0  0  0  0  0  0  0  0  0  0  0
   39.3290   -3.1040   -0.9410 C   0  0  0  0  0  0  0  0  0  0  0  0
   38.1870   -3.8710   -1.0860 C   0  0  0  0  0  0  0  0  0  0  0  0
   37.4930   -4.3420    0.0230 C   0  0  0  0  0  0  0  0  0  0  0  0
   36.2240   -5.0850   -0.2360 C   0  0  0  0  0  0  0  0  0  0  0  0
   35.0680   -4.8400    0.5140 C   0  0  0  0  0  0  0  0  0  0  0  0
   33.8570   -5.4190    0.1610 C   0  0  0  0  0  0  0  0  0  0  0  0
   33.7730   -6.2510   -0.9420 C   0  0  0  0  0  0  0  0  0  0  0  0
   34.9020   -6.5060   -1.6940 C   0  0  0  0  0  0  0  0  0  0  0  0
   36.1180   -5.9330   -1.3480 C   0  0  0  0  0  0  0  0  0  0  0  0
  1  2  1  0  0  0  0
  2  3  1  0  0  0  0
  3  4  2  0  0  0  0
  4  5  1  0  0  0  0
  5  6  1  0  0  0  0
  6  7  1  0  0  0  0
  7  8  1  0  0  0  0
  8  9  1  0  0  0  0
  9 10  1  0  0  0  0
 10 11  1  0  0  0  0
 11 12  1  0  0  0  0
 12 13  1  0  0  0  0
 13 14  1  0  0  0  0
 14 15  1  0  0  0  0
 15 16  2  0  0  0  0
 16 17  1  0  0  0  0
 17 18  1  0  0  0  0
 18 19  1  0  0  0  0
 18 20  1  0  0  0  0
 20 21  1  0  0  0  0
 21 22  1  0  0  0  0
 20 23  2  0  0  0  0
 17 24  2  0  0  0  0
 21 24  1  0  0  0  0
 14 25  2  0  0  0  0
 24 25  1  0  0  0  0
 13 26  2  0  0  0  0
 13 27  2  0  0  0  0
 12 28  1  0  0  0  0
  9 29  1  0  0  0  0
 28 29  1  0  0  0  0
  7 30  1  0  0  0  0
  9 30  1  0  0  0  0
  4 31  1  0  0  0  0
 31 32  2  0  0  0  0
  2 33  2  0  0  0  0
 32 33  1  0  0  0  0
 33 34  1  0  0  0  0
 34 35  2  0  0  0  0
 35 36  1  0  0  0  0
 36 37  2  0  0  0  0
 37 38  1  0  0  0  0
 34 39  1  0  0  0  0
 38 39  2  0  0  0  0
M  END
$$$$
