8YR2
  PyMOL3.1          3D                             0

 40 42  0  0  0  0  0  0  0  0999 V2000
  104.6540  118.0740   93.1150 N   0  0  0  0  0  0  0  0  0  0  0  0
  102.7370  112.7570   93.4850 C   0  0  0  0  0  0  0  0  0  0  0  0
  103.2430  114.0030   93.0600 O   0  0  0  0  0  0  0  0  0  0  0  0
  103.3850  111.6740   92.9420 C   0  0  0  0  0  0  0  0  0  0  0  0
  100.9600  113.4970   95.0430 O   0  0  0  0  0  0  0  0  0  0  0  0
  103.0370  110.3840   93.2510 C   0  0  0  0  0  0  0  0  0  0  0  0
  102.0210  110.1500   94.1350 C   0  0  0  0  0  0  0  0  0  0  0  0
  101.3640  111.2180   94.6980 C   0  0  0  0  0  0  0  0  0  0  0  0
  101.7070  112.5130   94.3940 C   0  0  0  0  0  0  0  0  0  0  0  0
   99.8140  113.0120   95.6670 C   0  0  0  0  0  0  0  0  0  0  0  0
  102.4740  115.1370   92.7850 C   0  0  0  0  0  0  0  0  0  0  0  0
  101.4270  114.9590   91.7000 C   0  0  0  0  0  0  0  0  0  0  0  0
  101.8110  114.6250   90.4210 C   0  0  0  0  0  0  0  0  0  0  0  0
  100.8550  114.4830   89.4400 C   0  0  0  0  0  0  0  0  0  0  0  0
   99.5250  114.6900   89.7330 C   0  0  0  0  0  0  0  0  0  0  0  0
   99.1420  115.0360   91.0090 C   0  0  0  0  0  0  0  0  0  0  0  0
  100.0950  115.1790   91.9920 C   0  0  0  0  0  0  0  0  0  0  0  0
  103.4020  116.2080   92.2430 C   0  0  0  0  0  0  0  0  0  0  0  0
  104.4860  116.6420   93.2090 C   0  0  0  0  0  0  0  0  0  0  0  0
  103.4010  118.7210   93.4240 C   0  0  0  0  0  0  0  0  0  0  0  0
   82.2240   68.8030   93.1180 N   0  0  0  0  0  0  0  0  0  0  0  0
   84.1420   74.1170   93.4860 C   0  0  0  0  0  0  0  0  0  0  0  0
   83.6370   72.8690   93.0630 O   0  0  0  0  0  0  0  0  0  0  0  0
   83.4920   75.1990   92.9420 C   0  0  0  0  0  0  0  0  0  0  0  0
   85.9210   73.3800   95.0430 O   0  0  0  0  0  0  0  0  0  0  0  0
   83.8400   76.4890   93.2490 C   0  0  0  0  0  0  0  0  0  0  0  0
   84.8570   76.7250   94.1320 C   0  0  0  0  0  0  0  0  0  0  0  0
   85.5150   75.6590   94.6950 C   0  0  0  0  0  0  0  0  0  0  0  0
   85.1720   74.3620   94.3940 C   0  0  0  0  0  0  0  0  0  0  0  0
   87.0670   73.8660   95.6650 C   0  0  0  0  0  0  0  0  0  0  0  0
   84.4070   71.7380   92.7850 C   0  0  0  0  0  0  0  0  0  0  0  0
   85.4510   71.9200   91.6980 C   0  0  0  0  0  0  0  0  0  0  0  0
   85.0630   72.2530   90.4200 C   0  0  0  0  0  0  0  0  0  0  0  0
   86.0150   72.3980   89.4360 C   0  0  0  0  0  0  0  0  0  0  0  0
   87.3470   72.1960   89.7250 C   0  0  0  0  0  0  0  0  0  0  0  0
   87.7340   71.8500   90.9990 C   0  0  0  0  0  0  0  0  0  0  0  0
   86.7840   71.7030   91.9850 C   0  0  0  0  0  0  0  0  0  0  0  0
   83.4820   70.6630   92.2450 C   0  0  0  0  0  0  0  0  0  0  0  0
   82.3920   70.2350   93.2060 C   0  0  0  0  0  0  0  0  0  0  0  0
   83.4780   68.1570   93.4250 C   0  0  0  0  0  0  0  0  0  0  0  0
  2  3  1  0  0  0  0
  2  4  2  0  0  0  0
  4  6  1  0  0  0  0
  6  7  2  0  0  0  0
  7  8  1  0  0  0  0
  2  9  1  0  0  0  0
  5  9  1  0  0  0  0
  8  9  2  0  0  0  0
  5 10  1  0  0  0  0
  3 11  1  0  0  0  0
 11 12  1  0  0  0  0
 12 13  2  0  0  0  0
 13 14  1  0  0  0  0
 14 15  2  0  0  0  0
 15 16  1  0  0  0  0
 12 17  1  0  0  0  0
 16 17  2  0  0  0  0
 11 18  1  0  0  0  0
  1 19  1  0  0  0  0
 18 19  1  0  0  0  0
  1 20  1  0  0  0  0
 22 23  1  0  0  0  0
 22 24  2  0  0  0  0
 24 26  1  0  0  0  0
 26 27  2  0  0  0  0
 27 28  1  0  0  0  0
 22 29  1  0  0  0  0
 25 29  1  0  0  0  0
 28 29  2  0  0  0  0
 25 30  1  0  0  0  0
 23 31  1  0  0  0  0
 31 32  1  0  0  0  0
 32 33  2  0  0  0  0
 33 34  1  0  0  0  0
 34 35  2  0  0  0  0
 35 36  1  0  0  0  0
 32 37  1  0  0  0  0
 36 37  2  0  0  0  0
 31 38  1  0  0  0  0
 21 39  1  0  0  0  0
 38 39  1  0  0  0  0
 21 40  1  0  0  0  0
M  END
$$$$
