8YR2
  PyMOL3.1          3D                             0

 20 21  0  0  0  0  0  0  0  0999 V2000
   82.2240   68.8030   93.1180 N   0  0  0  0  0  0  0  0  0  0  0  0
   84.1420   74.1170   93.4860 C   0  0  0  0  0  0  0  0  0  0  0  0
   83.6370   72.8690   93.0630 O   0  0  0  0  0  0  0  0  0  0  0  0
   83.4920   75.1990   92.9420 C   0  0  0  0  0  0  0  0  0  0  0  0
   85.9210   73.3800   95.0430 O   0  0  0  0  0  0  0  0  0  0  0  0
   83.8400   76.4890   93.2490 C   0  0  0  0  0  0  0  0  0  0  0  0
   84.8570   76.7250   94.1320 C   0  0  0  0  0  0  0  0  0  0  0  0
   85.5150   75.6590   94.6950 C   0  0  0  0  0  0  0  0  0  0  0  0
   85.1720   74.3620   94.3940 C   0  0  0  0  0  0  0  0  0  0  0  0
   87.0670   73.8660   95.6650 C   0  0  0  0  0  0  0  0  0  0  0  0
   84.4070   71.7380   92.7850 C   0  0  0  0  0  0  0  0  0  0  0  0
   85.4510   71.9200   91.6980 C   0  0  0  0  0  0  0  0  0  0  0  0
   85.0630   72.2530   90.4200 C   0  0  0  0  0  0  0  0  0  0  0  0
   86.0150   72.3980   89.4360 C   0  0  0  0  0  0  0  0  0  0  0  0
   87.3470   72.1960   89.7250 C   0  0  0  0  0  0  0  0  0  0  0  0
   87.7340   71.8500   90.9990 C   0  0  0  0  0  0  0  0  0  0  0  0
   86.7840   71.7030   91.9850 C   0  0  0  0  0  0  0  0  0  0  0  0
   83.4820   70.6630   92.2450 C   0  0  0  0  0  0  0  0  0  0  0  0
   82.3920   70.2350   93.2060 C   0  0  0  0  0  0  0  0  0  0  0  0
   83.4780   68.1570   93.4250 C   0  0  0  0  0  0  0  0  0  0  0  0
  2  3  1  0  0  0  0
  2  4  2  0  0  0  0
  4  6  1  0  0  0  0
  6  7  2  0  0  0  0
  7  8  1  0  0  0  0
  2  9  1  0  0  0  0
  5  9  1  0  0  0  0
  8  9  2  0  0  0  0
  5 10  1  0  0  0  0
  3 11  1  0  0  0  0
 11 12  1  0  0  0  0
 12 13  2  0  0  0  0
 13 14  1  0  0  0  0
 14 15  2  0  0  0  0
 15 16  1  0  0  0  0
 12 17  1  0  0  0  0
 16 17  2  0  0  0  0
 11 18  1  0  0  0  0
  1 19  1  0  0  0  0
 18 19  1  0  0  0  0
  1 20  1  0  0  0  0
M  END
$$$$
