7QPN
  PyMOL3.1          3D                             0

 54 60  0  0  0  0  0  0  0  0999 V2000
  -19.1200   39.4040   17.1330 N   0  0  0  0  0  0  0  0  0  0  0  0
   -8.0930   37.6870    5.2120 N   0  0  0  0  0  0  0  0  0  0  0  0
  -20.2600   37.4220   14.2790 C   0  0  0  0  0  0  0  0  0  0  0  0
   -6.4050   40.2050    8.5000 C   0  0  0  0  0  0  0  0  0  0  0  0
  -21.1410   37.7220   15.4740 C   0  0  0  0  0  0  0  0  0  0  0  0
   -7.6610   39.6850    7.7950 C   0  0  0  0  0  0  0  0  0  0  0  0
  -17.8110   41.0600   16.2710 N   0  0  0  0  0  0  0  0  0  0  0  0
   -8.5300   35.4550    5.2180 N   0  0  0  0  0  0  0  0  0  0  0  0
  -22.5820   37.4900   15.1170 C   0  0  0  0  0  0  0  0  0  0  0  0
   -8.8710   39.7060    8.7140 C   0  0  0  0  0  0  0  0  0  0  0  0
  -17.7820   39.7050   12.8260 N   0  0  0  0  0  0  0  0  0  0  0  0
  -11.2320   34.4710    6.5930 N   0  0  0  0  0  0  0  0  0  0  0  0
  -20.7560   36.9310   16.7110 C   0  0  0  0  0  0  0  0  0  0  0  0
   -7.9920   40.5120    6.5720 C   0  0  0  0  0  0  0  0  0  0  0  0
  -18.8900   42.8290   18.7130 N   0  0  0  0  0  0  0  0  0  0  0  0
   -5.6290   35.0450    4.2260 N   0  0  0  0  0  0  0  0  0  0  0  0
  -20.3520   37.5360   17.9100 C   0  0  0  0  0  0  0  0  0  0  0  0
   -7.6380   40.0610    5.2910 C   0  0  0  0  0  0  0  0  0  0  0  0
  -20.4990   39.6680   19.0460 N   0  0  0  0  0  0  0  0  0  0  0  0
   -5.9250   38.5360    4.6930 N   0  0  0  0  0  0  0  0  0  0  0  0
  -20.1290   36.7210   19.0150 C   0  0  0  0  0  0  0  0  0  0  0  0
   -7.8370   40.9130    4.2060 C   0  0  0  0  0  0  0  0  0  0  0  0
  -20.2370   35.3480   18.9250 C   0  0  0  0  0  0  0  0  0  0  0  0
   -8.4230   42.1600    4.3900 C   0  0  0  0  0  0  0  0  0  0  0  0
  -20.5800   34.7670   17.7500 C   0  0  0  0  0  0  0  0  0  0  0  0
   -8.8620   42.5530    5.6410 C   0  0  0  0  0  0  0  0  0  0  0  0
  -20.8560   35.5480   16.6480 C   0  0  0  0  0  0  0  0  0  0  0  0
   -8.6440   41.7400    6.7350 C   0  0  0  0  0  0  0  0  0  0  0  0
  -19.9960   38.9590   18.0260 C   0  0  0  0  0  0  0  0  0  0  0  0
   -7.1990   38.6850    5.0390 C   0  0  0  0  0  0  0  0  0  0  0  0
  -18.6740   40.6670   17.2220 C   0  0  0  0  0  0  0  0  0  0  0  0
   -7.6690   36.4310    4.9840 C   0  0  0  0  0  0  0  0  0  0  0  0
  -17.3900   40.1960   15.1810 C   0  0  0  0  0  0  0  0  0  0  0  0
   -9.9270   35.5750    4.9170 C   0  0  0  0  0  0  0  0  0  0  0  0
  -18.2160   40.3740   13.9080 C   0  0  0  0  0  0  0  0  0  0  0  0
  -10.5880   35.5880    6.2390 C   0  0  0  0  0  0  0  0  0  0  0  0
  -19.3760   41.1040   13.8980 C   0  0  0  0  0  0  0  0  0  0  0  0
  -10.5840   36.7280    7.0090 C   0  0  0  0  0  0  0  0  0  0  0  0
  -20.1470   41.1100   12.7480 C   0  0  0  0  0  0  0  0  0  0  0  0
  -11.2900   36.7200    8.1890 C   0  0  0  0  0  0  0  0  0  0  0  0
  -19.7320   40.4240   11.6440 C   0  0  0  0  0  0  0  0  0  0  0  0
  -11.9450   35.5820    8.5790 C   0  0  0  0  0  0  0  0  0  0  0  0
  -18.5400   39.7520   11.7190 C   0  0  0  0  0  0  0  0  0  0  0  0
  -11.8940   34.4890    7.7510 C   0  0  0  0  0  0  0  0  0  0  0  0
  -19.1140   41.5300   18.2840 C   0  0  0  0  0  0  0  0  0  0  0  0
   -6.3510   36.1630    4.5950 C   0  0  0  0  0  0  0  0  0  0  0  0
  -17.9790   43.8240   18.1660 C   0  0  0  0  0  0  0  0  0  0  0  0
   -6.1020   33.6800    4.0490 C   0  0  0  0  0  0  0  0  0  0  0  0
  -19.6750   43.0630   19.8190 C   0  0  0  0  0  0  0  0  0  0  0  0
   -4.3430   35.4450    3.9550 C   0  0  0  0  0  0  0  0  0  0  0  0
  -20.3950   41.9660   20.1410 C   0  0  0  0  0  0  0  0  0  0  0  0
   -4.2250   36.7830    4.1290 C   0  0  0  0  0  0  0  0  0  0  0  0
  -20.0460   40.9350   19.1570 C   0  0  0  0  0  0  0  0  0  0  0  0
   -5.5160   37.2660    4.5100 C   0  0  0  0  0  0  0  0  0  0  0  0
  3  5  1  0  0  0  0
  4  6  1  0  0  0  0
  5  9  1  0  0  0  0
  6 10  1  0  0  0  0
  5 13  1  0  0  0  0
  6 14  1  0  0  0  0
 13 17  2  0  0  0  0
 14 18  2  0  0  0  0
 17 21  1  0  0  0  0
 18 22  1  0  0  0  0
 21 23  2  0  0  0  0
 22 24  2  0  0  0  0
 23 25  1  0  0  0  0
 24 26  1  0  0  0  0
 13 27  1  0  0  0  0
 25 27  2  0  0  0  0
 14 28  1  0  0  0  0
 26 28  2  0  0  0  0
  1 29  2  0  0  0  0
 17 29  1  0  0  0  0
 19 29  1  0  0  0  0
  2 30  2  0  0  0  0
 18 30  1  0  0  0  0
 20 30  1  0  0  0  0
  1 31  1  0  0  0  0
  7 31  1  0  0  0  0
  2 32  1  0  0  0  0
  8 32  1  0  0  0  0
  7 33  1  0  0  0  0
  8 34  1  0  0  0  0
 11 35  1  0  0  0  0
 33 35  1  0  0  0  0
 12 36  1  0  0  0  0
 34 36  1  0  0  0  0
 35 37  2  0  0  0  0
 36 38  2  0  0  0  0
 37 39  1  0  0  0  0
 38 40  1  0  0  0  0
 39 41  2  0  0  0  0
 40 42  2  0  0  0  0
 11 43  2  0  0  0  0
 41 43  1  0  0  0  0
 12 44  2  0  0  0  0
 42 44  1  0  0  0  0
 15 45  1  0  0  0  0
 31 45  2  0  0  0  0
 16 46  1  0  0  0  0
 32 46  2  0  0  0  0
 15 47  1  0  0  0  0
 16 48  1  0  0  0  0
 15 49  1  0  0  0  0
 16 50  1  0  0  0  0
 49 51  2  0  0  0  0
 50 52  2  0  0  0  0
 19 53  2  0  0  0  0
 45 53  1  0  0  0  0
 51 53  1  0  0  0  0
 20 54  2  0  0  0  0
 46 54  1  0  0  0  0
 52 54  1  0  0  0  0
M  END
$$$$
