8JXS
  PyMOL3.1          3D                             0

 27 31  0  0  0  0  0  0  0  0999 V2000
   70.7970  129.6400  120.0370 C   0  0  0  0  0  0  0  0  0  0  0  0
   71.1190  128.1530  119.8730 C   0  0  0  0  0  0  0  0  0  0  0  0
   70.2800  127.3390  119.1300 C   0  0  0  0  0  0  0  0  0  0  0  0
   69.0280  127.9320  118.4700 C   0  0  0  0  0  0  0  0  0  0  0  0
   67.7830  127.7450  119.0630 C   0  0  0  0  0  0  0  0  0  0  0  0
   67.6680  126.9490  120.3650 C   0  0  0  0  0  0  0  0  0  0  0  0
   66.6880  128.2570  118.4980 N   0  0  0  0  0  0  0  0  0  0  0  0
   66.8100  128.9450  117.3670 C   0  0  0  0  0  0  0  0  0  0  0  0
   68.0890  129.1340  116.7650 C   0  0  0  0  0  0  0  0  0  0  0  0
   68.4200  129.7990  115.6240 N   0  0  0  0  0  0  0  0  0  0  0  0
   69.7330  129.7090  115.4600 C   0  0  0  0  0  0  0  0  0  0  0  0
   70.2260  128.9690  116.5300 C   0  0  0  0  0  0  0  0  0  0  0  0
   69.1610  128.6370  117.3120 N   0  0  0  0  0  0  0  0  0  0  0  0
   70.5720  125.9940  118.9810 C   0  0  0  0  0  0  0  0  0  0  0  0
   71.7060  125.4620  119.5800 C   0  0  0  0  0  0  0  0  0  0  0  0
   72.5470  126.2780  120.3210 C   0  0  0  0  0  0  0  0  0  0  0  0
   73.6990  125.7490  120.9340 O   0  0  0  0  0  0  0  0  0  0  0  0
   74.7330  125.5870  119.9980 C   0  0  0  0  0  0  0  0  0  0  0  0
   74.5440  125.9240  118.7270 N   0  0  0  0  0  0  0  0  0  0  0  0
   75.5150  125.7760  117.8230 C   0  0  0  0  0  0  0  0  0  0  0  0
   76.7590  125.2660  118.1780 C   0  0  0  0  0  0  0  0  0  0  0  0
   77.0110  124.8920  119.5250 C   0  0  0  0  0  0  0  0  0  0  0  0
   75.9750  125.0630  120.4260 C   0  0  0  0  0  0  0  0  0  0  0  0
   76.5040  124.6040  121.7180 C   0  0  0  0  0  0  0  0  0  0  0  0
   77.8180  124.2040  121.4350 C   0  0  0  0  0  0  0  0  0  0  0  0
   78.0730  124.3850  120.1660 O   0  0  0  0  0  0  0  0  0  0  0  0
   72.2520  127.6220  120.4690 C   0  0  0  0  0  0  0  0  0  0  0  0
  1  2  1  0  0  0  0
  2  3  1  0  0  0  0
  3  4  1  0  0  0  0
  4  5  2  0  0  0  0
  5  6  1  0  0  0  0
  5  7  1  0  0  0  0
  7  8  2  0  0  0  0
  8  9  1  0  0  0  0
  9 10  2  0  0  0  0
 10 11  1  0  0  0  0
 11 12  2  0  0  0  0
  4 13  1  0  0  0  0
  9 13  1  0  0  0  0
 12 13  1  0  0  0  0
  3 14  2  0  0  0  0
 14 15  1  0  0  0  0
 15 16  2  0  0  0  0
 16 17  1  0  0  0  0
 17 18  1  0  0  0  0
 18 19  2  0  0  0  0
 19 20  1  0  0  0  0
 20 21  2  0  0  0  0
 21 22  1  0  0  0  0
 18 23  1  0  0  0  0
 22 23  2  0  0  0  0
 23 24  1  0  0  0  0
 24 25  2  0  0  0  0
 22 26  1  0  0  0  0
 25 26  1  0  0  0  0
  2 27  2  0  0  0  0
 16 27  1  0  0  0  0
M  END
$$$$
