8IZY
  PyMOL3.1          3D                             0

368376  0  0  0  0  0  0  0  0999 V2000
  111.5890  117.1490  105.4100 C   0  0  0  0  0  0  0  0  0  0  0  0
  110.1160  116.7580  105.4510 C   0  0  0  0  0  0  0  0  0  0  0  0
  109.1530  117.7030  105.1540 C   0  0  0  0  0  0  0  0  0  0  0  0
  107.8120  117.3660  105.1830 C   0  0  0  0  0  0  0  0  0  0  0  0
  107.4380  116.0770  105.5160 C   0  0  0  0  0  0  0  0  0  0  0  0
  108.4000  115.1260  105.8140 C   0  0  0  0  0  0  0  0  0  0  0  0
  109.7410  115.4670  105.7790 C   0  0  0  0  0  0  0  0  0  0  0  0
  110.7510  114.4730  106.0930 N   0  0  0  0  0  0  0  0  0  0  0  0
  111.2490  114.3630  107.4510 C   0  0  0  0  0  0  0  0  0  0  0  0
  110.8610  115.1150  108.2780 O   0  0  0  0  0  0  0  0  0  0  0  0
  112.1780  113.3760  107.7860 O   0  0  0  0  0  0  0  0  0  0  0  0
  112.4140  113.2660  109.1600 C   0  0  0  0  0  0  0  0  0  0  0  0
  107.9780  113.7040  106.1770 C   0  0  0  0  0  0  0  0  0  0  0  0
  106.8080  118.3710  104.8800 N   0  0  0  0  0  0  0  0  0  0  0  0
  107.1310  119.4930  104.0210 C   0  0  0  0  0  0  0  0  0  0  0  0
  107.8650  120.5470  104.8500 C   0  0  0  0  0  0  0  0  0  0  0  0
  108.4460  121.3450  105.5110 C   0  0  0  0  0  0  0  0  0  0  0  0
  105.4910  118.2990  105.4890 C   0  0  0  0  0  0  0  0  0  0  0  0
  104.4290  117.7490  104.5390 C   0  0  0  0  0  0  0  0  0  0  0  0
  104.7320  116.7260  103.6590 C   0  0  0  0  0  0  0  0  0  0  0  0
  103.7550  116.2340  102.8100 C   0  0  0  0  0  0  0  0  0  0  0  0
  102.4750  116.7610  102.8460 C   0  0  0  0  0  0  0  0  0  0  0  0
  102.1710  117.7800  103.7300 C   0  0  0  0  0  0  0  0  0  0  0  0
  103.1480  118.2720  104.5780 C   0  0  0  0  0  0  0  0  0  0  0  0
  101.5110  116.2770  102.0110 F   0  0  0  0  0  0  0  0  0  0  0  0
  112.0620  116.5350  104.8800 H   0  0  0  0  0  0  0  0  0  0  0  0
  111.9370  117.1500  106.2810 H   0  0  0  0  0  0  0  0  0  0  0  0
  111.6730  118.0080  105.0400 H   0  0  0  0  0  0  0  0  0  0  0  0
  109.4110  118.5680  104.9350 H   0  0  0  0  0  0  0  0  0  0  0  0
  106.5380  115.8470  105.5400 H   0  0  0  0  0  0  0  0  0  0  0  0
  111.0560  113.9480  105.4720 H   0  0  0  0  0  0  0  0  0  0  0  0
  113.0860  112.6280  109.3120 H   0  0  0  0  0  0  0  0  0  0  0  0
  111.6240  112.9990  109.5920 H   0  0  0  0  0  0  0  0  0  0  0  0
  112.6910  114.0970  109.4990 H   0  0  0  0  0  0  0  0  0  0  0  0
  108.1510  113.1310  105.4530 H   0  0  0  0  0  0  0  0  0  0  0  0
  107.0600  113.6910  106.3740 H   0  0  0  0  0  0  0  0  0  0  0  0
  108.4630  113.4150  106.9280 H   0  0  0  0  0  0  0  0  0  0  0  0
  107.6810  119.2050  103.3170 H   0  0  0  0  0  0  0  0  0  0  0  0
  106.3400  119.8610  103.6740 H   0  0  0  0  0  0  0  0  0  0  0  0
  108.8920  121.9580  106.0200 H   0  0  0  0  0  0  0  0  0  0  0  0
  105.5280  117.7540  106.2520 H   0  0  0  0  0  0  0  0  0  0  0  0
  105.2360  119.1630  105.7520 H   0  0  0  0  0  0  0  0  0  0  0  0
  105.5900  116.3720  103.6340 H   0  0  0  0  0  0  0  0  0  0  0  0
  103.9580  115.5490  102.2160 H   0  0  0  0  0  0  0  0  0  0  0  0
  101.3130  118.1340  103.7540 H   0  0  0  0  0  0  0  0  0  0  0  0
  102.9440  118.9570  105.1720 H   0  0  0  0  0  0  0  0  0  0  0  0
  117.1520  131.7730  105.4090 C   0  0  0  0  0  0  0  0  0  0  0  0
  116.7600  133.2450  105.4520 C   0  0  0  0  0  0  0  0  0  0  0  0
  117.7050  134.2080  105.1560 C   0  0  0  0  0  0  0  0  0  0  0  0
  117.3690  135.5490  105.1850 C   0  0  0  0  0  0  0  0  0  0  0  0
  116.0790  135.9230  105.5180 C   0  0  0  0  0  0  0  0  0  0  0  0
  115.1290  134.9610  105.8140 C   0  0  0  0  0  0  0  0  0  0  0  0
  115.4690  133.6200  105.7790 C   0  0  0  0  0  0  0  0  0  0  0  0
  114.4740  132.6100  106.0930 N   0  0  0  0  0  0  0  0  0  0  0  0
  114.3650  132.1140  107.4510 C   0  0  0  0  0  0  0  0  0  0  0  0
  115.1170  132.4990  108.2790 O   0  0  0  0  0  0  0  0  0  0  0  0
  113.3760  131.1840  107.7860 O   0  0  0  0  0  0  0  0  0  0  0  0
  113.2660  130.9500  109.1610 C   0  0  0  0  0  0  0  0  0  0  0  0
  113.7060  135.3830  106.1780 C   0  0  0  0  0  0  0  0  0  0  0  0
  118.3730  136.5530  104.8820 N   0  0  0  0  0  0  0  0  0  0  0  0
  119.4950  136.2310  104.0240 C   0  0  0  0  0  0  0  0  0  0  0  0
  120.5490  135.4970  104.8520 C   0  0  0  0  0  0  0  0  0  0  0  0
  121.3470  134.9160  105.5130 C   0  0  0  0  0  0  0  0  0  0  0  0
  118.3010  137.8720  105.4920 C   0  0  0  0  0  0  0  0  0  0  0  0
  117.7510  138.9330  104.5420 C   0  0  0  0  0  0  0  0  0  0  0  0
  116.7280  138.6300  103.6610 C   0  0  0  0  0  0  0  0  0  0  0  0
  116.2360  139.6060  102.8120 C   0  0  0  0  0  0  0  0  0  0  0  0
  116.7620  140.8860  102.8490 C   0  0  0  0  0  0  0  0  0  0  0  0
  117.7810  141.1900  103.7320 C   0  0  0  0  0  0  0  0  0  0  0  0
  118.2730  140.2130  104.5800 C   0  0  0  0  0  0  0  0  0  0  0  0
  116.2790  141.8500  102.0140 F   0  0  0  0  0  0  0  0  0  0  0  0
  116.5370  131.2990  104.8810 H   0  0  0  0  0  0  0  0  0  0  0  0
  117.1530  131.4260  106.2810 H   0  0  0  0  0  0  0  0  0  0  0  0
  118.0110  131.6890  105.0390 H   0  0  0  0  0  0  0  0  0  0  0  0
  118.5700  133.9500  104.9360 H   0  0  0  0  0  0  0  0  0  0  0  0
  115.8490  136.8230  105.5420 H   0  0  0  0  0  0  0  0  0  0  0  0
  113.9500  132.3050  105.4720 H   0  0  0  0  0  0  0  0  0  0  0  0
  112.6270  130.2780  109.3130 H   0  0  0  0  0  0  0  0  0  0  0  0
  113.0000  131.7390  109.5930 H   0  0  0  0  0  0  0  0  0  0  0  0
  114.0970  130.6710  109.5000 H   0  0  0  0  0  0  0  0  0  0  0  0
  113.1330  135.2100  105.4540 H   0  0  0  0  0  0  0  0  0  0  0  0
  113.6920  136.3010  106.3750 H   0  0  0  0  0  0  0  0  0  0  0  0
  113.4170  134.8980  106.9280 H   0  0  0  0  0  0  0  0  0  0  0  0
  119.2070  135.6810  103.3190 H   0  0  0  0  0  0  0  0  0  0  0  0
  119.8630  137.0220  103.6760 H   0  0  0  0  0  0  0  0  0  0  0  0
  121.9600  134.4700  106.0210 H   0  0  0  0  0  0  0  0  0  0  0  0
  117.7560  137.8330  106.2540 H   0  0  0  0  0  0  0  0  0  0  0  0
  119.1660  138.1260  105.7540 H   0  0  0  0  0  0  0  0  0  0  0  0
  116.3740  137.7710  103.6360 H   0  0  0  0  0  0  0  0  0  0  0  0
  115.5520  139.4030  102.2180 H   0  0  0  0  0  0  0  0  0  0  0  0
  118.1350  142.0490  103.7570 H   0  0  0  0  0  0  0  0  0  0  0  0
  118.9580  140.4180  105.1740 H   0  0  0  0  0  0  0  0  0  0  0  0
  122.0790   98.0810  112.2650 C   0  0  0  0  0  0  0  0  0  0  0  0
  123.5290   98.2130  111.8090 C   0  0  0  0  0  0  0  0  0  0  0  0
  123.8320   98.9350  110.6660 C   0  0  0  0  0  0  0  0  0  0  0  0
  125.1450   99.0680  110.2410 C   0  0  0  0  0  0  0  0  0  0  0  0
  126.1510   98.4590  110.9790 C   0  0  0  0  0  0  0  0  0  0  0  0
  125.8530   97.7330  112.1210 C   0  0  0  0  0  0  0  0  0  0  0  0
  124.5390   97.6070  112.5390 C   0  0  0  0  0  0  0  0  0  0  0  0
  124.2090   96.8550  113.7400 N   0  0  0  0  0  0  0  0  0  0  0  0
  124.4930   95.4350  113.8330 C   0  0  0  0  0  0  0  0  0  0  0  0
  124.7610   94.8180  112.8580 O   0  0  0  0  0  0  0  0  0  0  0  0
  124.4540   94.8020  115.0800 O   0  0  0  0  0  0  0  0  0  0  0  0
  123.8130   93.5570  115.0760 C   0  0  0  0  0  0  0  0  0  0  0  0
  126.9870   97.0780  112.9100 C   0  0  0  0  0  0  0  0  0  0  0  0
  125.4470   99.8310  109.0310 N   0  0  0  0  0  0  0  0  0  0  0  0
  124.4470  100.7390  108.4860 C   0  0  0  0  0  0  0  0  0  0  0  0
  123.5780   99.9790  107.4840 C   0  0  0  0  0  0  0  0  0  0  0  0
  122.9120   99.3830  106.7010 C   0  0  0  0  0  0  0  0  0  0  0  0
  126.7140   99.6570  108.3220 C   0  0  0  0  0  0  0  0  0  0  0  0
  127.3830  100.9810  107.9450 C   0  0  0  0  0  0  0  0  0  0  0  0
  127.6910  101.9120  108.9210 C   0  0  0  0  0  0  0  0  0  0  0  0
  128.3020  103.1030  108.5670 C   0  0  0  0  0  0  0  0  0  0  0  0
  128.6110  103.3620  107.2440 C   0  0  0  0  0  0  0  0  0  0  0  0
  128.3080  102.4290  106.2690 C   0  0  0  0  0  0  0  0  0  0  0  0
  127.6950  101.2390  106.6200 C   0  0  0  0  0  0  0  0  0  0  0  0
  129.2140  104.5360  106.9000 F   0  0  0  0  0  0  0  0  0  0  0  0
  121.9570   98.5620  113.0630 H   0  0  0  0  0  0  0  0  0  0  0  0
  121.8770   97.1760  112.4120 H   0  0  0  0  0  0  0  0  0  0  0  0
  121.5100   98.4260  111.6020 H   0  0  0  0  0  0  0  0  0  0  0  0
  123.1470   99.3360  110.1830 H   0  0  0  0  0  0  0  0  0  0  0  0
  127.0350   98.5350  110.7060 H   0  0  0  0  0  0  0  0  0  0  0  0
  123.8370   97.2620  114.4110 H   0  0  0  0  0  0  0  0  0  0  0  0
  123.5210   93.3530  115.9450 H   0  0  0  0  0  0  0  0  0  0  0  0
  124.4150   92.8980  114.7860 H   0  0  0  0  0  0  0  0  0  0  0  0
  123.0750   93.5850  114.4950 H   0  0  0  0  0  0  0  0  0  0  0  0
  126.9360   97.3440  113.8090 H   0  0  0  0  0  0  0  0  0  0  0  0
  127.8110   97.3470  112.5510 H   0  0  0  0  0  0  0  0  0  0  0  0
  126.9120   96.1440  112.8530 H   0  0  0  0  0  0  0  0  0  0  0  0
  123.9080  101.0790  109.1750 H   0  0  0  0  0  0  0  0  0  0  0  0
  124.8600  101.4570  108.0470 H   0  0  0  0  0  0  0  0  0  0  0  0
  122.3990   98.9250  106.1000 H   0  0  0  0  0  0  0  0  0  0  0  0
  127.3180   99.1630  108.8380 H   0  0  0  0  0  0  0  0  0  0  0  0
  126.5410   99.1810  107.5340 H   0  0  0  0  0  0  0  0  0  0  0  0
  127.4850  101.7400  109.8100 H   0  0  0  0  0  0  0  0  0  0  0  0
  128.5070  103.7300  109.2210 H   0  0  0  0  0  0  0  0  0  0  0  0
  128.5130  102.6020  105.3790 H   0  0  0  0  0  0  0  0  0  0  0  0
  127.4920  100.6140  105.9650 H   0  0  0  0  0  0  0  0  0  0  0  0
  145.2800  122.0790  112.2680 C   0  0  0  0  0  0  0  0  0  0  0  0
  145.1490  123.5290  111.8110 C   0  0  0  0  0  0  0  0  0  0  0  0
  144.4270  123.8310  110.6680 C   0  0  0  0  0  0  0  0  0  0  0  0
  144.2940  125.1440  110.2420 C   0  0  0  0  0  0  0  0  0  0  0  0
  144.9030  126.1510  110.9800 C   0  0  0  0  0  0  0  0  0  0  0  0
  145.6290  125.8530  112.1220 C   0  0  0  0  0  0  0  0  0  0  0  0
  145.7550  124.5390  112.5400 C   0  0  0  0  0  0  0  0  0  0  0  0
  146.5060  124.2100  113.7420 N   0  0  0  0  0  0  0  0  0  0  0  0
  147.9260  124.4940  113.8340 C   0  0  0  0  0  0  0  0  0  0  0  0
  148.5450  124.7620  112.8590 O   0  0  0  0  0  0  0  0  0  0  0  0
  148.5600  124.4550  115.0810 O   0  0  0  0  0  0  0  0  0  0  0  0
  149.8050  123.8150  115.0770 C   0  0  0  0  0  0  0  0  0  0  0  0
  146.2830  126.9870  112.9110 C   0  0  0  0  0  0  0  0  0  0  0  0
  143.5310  125.4460  109.0320 N   0  0  0  0  0  0  0  0  0  0  0  0
  142.6230  124.4460  108.4880 C   0  0  0  0  0  0  0  0  0  0  0  0
  143.3830  123.5760  107.4870 C   0  0  0  0  0  0  0  0  0  0  0  0
  143.9810  122.9100  106.7050 C   0  0  0  0  0  0  0  0  0  0  0  0
  143.7040  126.7120  108.3230 C   0  0  0  0  0  0  0  0  0  0  0  0
  142.3800  127.3820  107.9460 C   0  0  0  0  0  0  0  0  0  0  0  0
  141.4500  127.6890  108.9220 C   0  0  0  0  0  0  0  0  0  0  0  0
  140.2580  128.3000  108.5690 C   0  0  0  0  0  0  0  0  0  0  0  0
  139.9990  128.6090  107.2450 C   0  0  0  0  0  0  0  0  0  0  0  0
  140.9320  128.3070  106.2700 C   0  0  0  0  0  0  0  0  0  0  0  0
  142.1220  127.6940  106.6210 C   0  0  0  0  0  0  0  0  0  0  0  0
  138.8250  129.2130  106.9020 F   0  0  0  0  0  0  0  0  0  0  0  0
  144.8000  121.9580  113.0650 H   0  0  0  0  0  0  0  0  0  0  0  0
  146.1850  121.8780  112.4140 H   0  0  0  0  0  0  0  0  0  0  0  0
  144.9360  121.5100  111.6050 H   0  0  0  0  0  0  0  0  0  0  0  0
  144.0250  123.1470  110.1850 H   0  0  0  0  0  0  0  0  0  0  0  0
  144.8270  127.0340  110.7070 H   0  0  0  0  0  0  0  0  0  0  0  0
  146.0990  123.8380  114.4120 H   0  0  0  0  0  0  0  0  0  0  0  0
  150.0090  123.5230  115.9450 H   0  0  0  0  0  0  0  0  0  0  0  0
  150.4640  124.4170  114.7880 H   0  0  0  0  0  0  0  0  0  0  0  0
  149.7770  123.0770  114.4960 H   0  0  0  0  0  0  0  0  0  0  0  0
  146.0170  126.9370  113.8100 H   0  0  0  0  0  0  0  0  0  0  0  0
  146.0140  127.8110  112.5520 H   0  0  0  0  0  0  0  0  0  0  0  0
  147.2170  126.9130  112.8540 H   0  0  0  0  0  0  0  0  0  0  0  0
  142.2830  123.9070  109.1770 H   0  0  0  0  0  0  0  0  0  0  0  0
  141.9050  124.8590  108.0480 H   0  0  0  0  0  0  0  0  0  0  0  0
  144.4380  122.3970  106.1030 H   0  0  0  0  0  0  0  0  0  0  0  0
  144.1980  127.3170  108.8380 H   0  0  0  0  0  0  0  0  0  0  0  0
  144.1800  126.5390  107.5350 H   0  0  0  0  0  0  0  0  0  0  0  0
  141.6220  127.4830  109.8110 H   0  0  0  0  0  0  0  0  0  0  0  0
  139.6320  128.5050  109.2220 H   0  0  0  0  0  0  0  0  0  0  0  0
  140.7590  128.5130  105.3810 H   0  0  0  0  0  0  0  0  0  0  0  0
  142.7470  127.4910  105.9660 H   0  0  0  0  0  0  0  0  0  0  0  0
  126.2120  111.5870  105.4110 C   0  0  0  0  0  0  0  0  0  0  0  0
  126.6030  110.1140  105.4540 C   0  0  0  0  0  0  0  0  0  0  0  0
  125.6570  109.1530  105.1570 C   0  0  0  0  0  0  0  0  0  0  0  0
  125.9930  107.8110  105.1860 C   0  0  0  0  0  0  0  0  0  0  0  0
  127.2830  107.4350  105.5190 C   0  0  0  0  0  0  0  0  0  0  0  0
  128.2330  108.3970  105.8160 C   0  0  0  0  0  0  0  0  0  0  0  0
  127.8930  109.7370  105.7810 C   0  0  0  0  0  0  0  0  0  0  0  0
  128.8880  110.7480  106.0950 N   0  0  0  0  0  0  0  0  0  0  0  0
  128.9970  111.2450  107.4530 C   0  0  0  0  0  0  0  0  0  0  0  0
  128.2450  110.8590  108.2800 O   0  0  0  0  0  0  0  0  0  0  0  0
  129.9850  112.1750  107.7880 O   0  0  0  0  0  0  0  0  0  0  0  0
  130.0930  112.4120  109.1620 C   0  0  0  0  0  0  0  0  0  0  0  0
  129.6550  107.9740  106.1790 C   0  0  0  0  0  0  0  0  0  0  0  0
  124.9870  106.8080  104.8830 N   0  0  0  0  0  0  0  0  0  0  0  0
  123.8650  107.1310  104.0240 C   0  0  0  0  0  0  0  0  0  0  0  0
  122.8130  107.8670  104.8520 C   0  0  0  0  0  0  0  0  0  0  0  0
  122.0150  108.4510  105.5120 C   0  0  0  0  0  0  0  0  0  0  0  0
  125.0590  105.4890  105.4920 C   0  0  0  0  0  0  0  0  0  0  0  0
  125.6100  104.4280  104.5420 C   0  0  0  0  0  0  0  0  0  0  0  0
  126.6330  104.7310  103.6630 C   0  0  0  0  0  0  0  0  0  0  0  0
  127.1270  103.7540  102.8150 C   0  0  0  0  0  0  0  0  0  0  0  0
  126.6000  102.4740  102.8510 C   0  0  0  0  0  0  0  0  0  0  0  0
  125.5810  102.1700  103.7340 C   0  0  0  0  0  0  0  0  0  0  0  0
  125.0870  103.1470  104.5810 C   0  0  0  0  0  0  0  0  0  0  0  0
  127.0850  101.5100  102.0160 F   0  0  0  0  0  0  0  0  0  0  0  0
  126.8280  112.0600  104.8810 H   0  0  0  0  0  0  0  0  0  0  0  0
  126.2120  111.9350  106.2820 H   0  0  0  0  0  0  0  0  0  0  0  0
  125.3530  111.6720  105.0420 H   0  0  0  0  0  0  0  0  0  0  0  0
  124.7930  109.4110  104.9370 H   0  0  0  0  0  0  0  0  0  0  0  0
  127.5100  106.5360  105.5420 H   0  0  0  0  0  0  0  0  0  0  0  0
  129.4140  111.0520  105.4740 H   0  0  0  0  0  0  0  0  0  0  0  0
  130.7310  113.0830  109.3140 H   0  0  0  0  0  0  0  0  0  0  0  0
  130.3590  111.6220  109.5950 H   0  0  0  0  0  0  0  0  0  0  0  0
  129.2620  112.6890  109.4990 H   0  0  0  0  0  0  0  0  0  0  0  0
  130.2280  108.1470  105.4550 H   0  0  0  0  0  0  0  0  0  0  0  0
  129.6690  107.0560  106.3760 H   0  0  0  0  0  0  0  0  0  0  0  0
  129.9440  108.4590  106.9300 H   0  0  0  0  0  0  0  0  0  0  0  0
  124.1530  107.6800  103.3190 H   0  0  0  0  0  0  0  0  0  0  0  0
  123.4960  106.3400  103.6780 H   0  0  0  0  0  0  0  0  0  0  0  0
  121.4020  108.8980  106.0190 H   0  0  0  0  0  0  0  0  0  0  0  0
  125.6030  105.5260  106.2550 H   0  0  0  0  0  0  0  0  0  0  0  0
  124.1940  105.2340  105.7540 H   0  0  0  0  0  0  0  0  0  0  0  0
  126.9870  105.5900  103.6380 H   0  0  0  0  0  0  0  0  0  0  0  0
  127.8120  103.9570  102.2210 H   0  0  0  0  0  0  0  0  0  0  0  0
  125.2260  101.3110  103.7570 H   0  0  0  0  0  0  0  0  0  0  0  0
  124.4020  102.9430  105.1750 H   0  0  0  0  0  0  0  0  0  0  0  0
  121.2820  145.2810  112.2700 C   0  0  0  0  0  0  0  0  0  0  0  0
  119.8310  145.1490  111.8120 C   0  0  0  0  0  0  0  0  0  0  0  0
  119.5310  144.4270  110.6690 C   0  0  0  0  0  0  0  0  0  0  0  0
  118.2170  144.2940  110.2430 C   0  0  0  0  0  0  0  0  0  0  0  0
  117.2100  144.9030  110.9800 C   0  0  0  0  0  0  0  0  0  0  0  0
  117.5080  145.6300  112.1220 C   0  0  0  0  0  0  0  0  0  0  0  0
  118.8210  145.7550  112.5410 C   0  0  0  0  0  0  0  0  0  0  0  0
  119.1510  146.5070  113.7420 N   0  0  0  0  0  0  0  0  0  0  0  0
  118.8660  147.9270  113.8340 C   0  0  0  0  0  0  0  0  0  0  0  0
  118.5990  148.5450  112.8590 O   0  0  0  0  0  0  0  0  0  0  0  0
  118.9070  148.5610  115.0810 O   0  0  0  0  0  0  0  0  0  0  0  0
  119.5460  149.8060  115.0760 C   0  0  0  0  0  0  0  0  0  0  0  0
  116.3740  146.2840  112.9100 C   0  0  0  0  0  0  0  0  0  0  0  0
  117.9170  143.5310  109.0320 N   0  0  0  0  0  0  0  0  0  0  0  0
  118.9170  142.6240  108.4870 C   0  0  0  0  0  0  0  0  0  0  0  0
  119.7840  143.3860  107.4850 C   0  0  0  0  0  0  0  0  0  0  0  0
  120.4500  143.9830  106.7020 C   0  0  0  0  0  0  0  0  0  0  0  0
  116.6500  143.7020  108.3240 C   0  0  0  0  0  0  0  0  0  0  0  0
  115.9810  142.3780  107.9470 C   0  0  0  0  0  0  0  0  0  0  0  0
  115.6690  141.4490  108.9240 C   0  0  0  0  0  0  0  0  0  0  0  0
  115.0580  140.2580  108.5710 C   0  0  0  0  0  0  0  0  0  0  0  0
  114.7550  139.9960  107.2470 C   0  0  0  0  0  0  0  0  0  0  0  0
  115.0620  140.9260  106.2710 C   0  0  0  0  0  0  0  0  0  0  0  0
  115.6730  142.1170  106.6220 C   0  0  0  0  0  0  0  0  0  0  0  0
  114.1510  138.8210  106.9050 F   0  0  0  0  0  0  0  0  0  0  0  0
  121.4020  144.8000  113.0670 H   0  0  0  0  0  0  0  0  0  0  0  0
  121.4830  146.1850  112.4160 H   0  0  0  0  0  0  0  0  0  0  0  0
  121.8510  144.9370  111.6070 H   0  0  0  0  0  0  0  0  0  0  0  0
  120.2160  144.0250  110.1870 H   0  0  0  0  0  0  0  0  0  0  0  0
  116.3270  144.8270  110.7060 H   0  0  0  0  0  0  0  0  0  0  0  0
  119.5210  146.1000  114.4130 H   0  0  0  0  0  0  0  0  0  0  0  0
  119.8390  150.0110  115.9440 H   0  0  0  0  0  0  0  0  0  0  0  0
  118.9430  150.4650  114.7870 H   0  0  0  0  0  0  0  0  0  0  0  0
  120.2830  149.7790  114.4940 H   0  0  0  0  0  0  0  0  0  0  0  0
  116.4230  146.0180  113.8090 H   0  0  0  0  0  0  0  0  0  0  0  0
  115.5490  146.0160  112.5500 H   0  0  0  0  0  0  0  0  0  0  0  0
  116.4480  147.2190  112.8530 H   0  0  0  0  0  0  0  0  0  0  0  0
  119.4570  142.2850  109.1760 H   0  0  0  0  0  0  0  0  0  0  0  0
  118.5060  141.9060  108.0480 H   0  0  0  0  0  0  0  0  0  0  0  0
  120.9610  144.4400  106.1000 H   0  0  0  0  0  0  0  0  0  0  0  0
  116.0440  144.1970  108.8390 H   0  0  0  0  0  0  0  0  0  0  0  0
  116.8220  144.1780  107.5350 H   0  0  0  0  0  0  0  0  0  0  0  0
  115.8720  141.6240  109.8140 H   0  0  0  0  0  0  0  0  0  0  0  0
  114.8500  139.6330  109.2250 H   0  0  0  0  0  0  0  0  0  0  0  0
  114.8590  140.7520  105.3810 H   0  0  0  0  0  0  0  0  0  0  0  0
  115.8800  142.7400  105.9660 H   0  0  0  0  0  0  0  0  0  0  0  0
  131.7740  126.2100  105.4120 C   0  0  0  0  0  0  0  0  0  0  0  0
  133.2470  126.6010  105.4540 C   0  0  0  0  0  0  0  0  0  0  0  0
  134.2090  125.6550  105.1570 C   0  0  0  0  0  0  0  0  0  0  0  0
  135.5510  125.9900  105.1860 C   0  0  0  0  0  0  0  0  0  0  0  0
  135.9260  127.2820  105.5190 C   0  0  0  0  0  0  0  0  0  0  0  0
  134.9630  128.2320  105.8170 C   0  0  0  0  0  0  0  0  0  0  0  0
  133.6240  127.8920  105.7820 C   0  0  0  0  0  0  0  0  0  0  0  0
  132.6130  128.8870  106.0950 N   0  0  0  0  0  0  0  0  0  0  0  0
  132.1160  128.9960  107.4530 C   0  0  0  0  0  0  0  0  0  0  0  0
  132.5010  128.2430  108.2800 O   0  0  0  0  0  0  0  0  0  0  0  0
  131.1870  129.9840  107.7890 O   0  0  0  0  0  0  0  0  0  0  0  0
  130.9510  130.0930  109.1630 C   0  0  0  0  0  0  0  0  0  0  0  0
  135.3870  129.6540  106.1800 C   0  0  0  0  0  0  0  0  0  0  0  0
  136.5550  124.9860  104.8830 N   0  0  0  0  0  0  0  0  0  0  0  0
  136.2310  123.8640  104.0250 C   0  0  0  0  0  0  0  0  0  0  0  0
  135.4950  122.8120  104.8530 C   0  0  0  0  0  0  0  0  0  0  0  0
  134.9110  122.0140  105.5130 C   0  0  0  0  0  0  0  0  0  0  0  0
  137.8720  125.0580  105.4930 C   0  0  0  0  0  0  0  0  0  0  0  0
  138.9330  125.6090  104.5430 C   0  0  0  0  0  0  0  0  0  0  0  0
  138.6300  126.6320  103.6630 C   0  0  0  0  0  0  0  0  0  0  0  0
  139.6080  127.1260  102.8150 C   0  0  0  0  0  0  0  0  0  0  0  0
  140.8870  126.5990  102.8520 C   0  0  0  0  0  0  0  0  0  0  0  0
  141.1910  125.5790  103.7350 C   0  0  0  0  0  0  0  0  0  0  0  0
  140.2140  125.0870  104.5820 C   0  0  0  0  0  0  0  0  0  0  0  0
  141.8520  127.0840  102.0170 F   0  0  0  0  0  0  0  0  0  0  0  0
  131.3010  126.8260  104.8840 H   0  0  0  0  0  0  0  0  0  0  0  0
  131.4270  126.2080  106.2830 H   0  0  0  0  0  0  0  0  0  0  0  0
  131.6900  125.3510  105.0400 H   0  0  0  0  0  0  0  0  0  0  0  0
  133.9510  124.7910  104.9380 H   0  0  0  0  0  0  0  0  0  0  0  0
  136.8250  127.5090  105.5430 H   0  0  0  0  0  0  0  0  0  0  0  0
  132.3090  129.4110  105.4740 H   0  0  0  0  0  0  0  0  0  0  0  0
  130.2810  130.7310  109.3160 H   0  0  0  0  0  0  0  0  0  0  0  0
  131.7410  130.3580  109.5960 H   0  0  0  0  0  0  0  0  0  0  0  0
  130.6720  129.2620  109.5010 H   0  0  0  0  0  0  0  0  0  0  0  0
  135.2130  130.2260  105.4560 H   0  0  0  0  0  0  0  0  0  0  0  0
  136.3040  129.6670  106.3770 H   0  0  0  0  0  0  0  0  0  0  0  0
  134.9020  129.9430  106.9300 H   0  0  0  0  0  0  0  0  0  0  0  0
  135.6820  124.1520  103.3200 H   0  0  0  0  0  0  0  0  0  0  0  0
  137.0210  123.4950  103.6790 H   0  0  0  0  0  0  0  0  0  0  0  0
  134.4640  121.4010  106.0210 H   0  0  0  0  0  0  0  0  0  0  0  0
  137.8350  125.6020  106.2560 H   0  0  0  0  0  0  0  0  0  0  0  0
  138.1270  124.1920  105.7550 H   0  0  0  0  0  0  0  0  0  0  0  0
  137.7720  126.9850  103.6380 H   0  0  0  0  0  0  0  0  0  0  0  0
  139.4040  127.8100  102.2210 H   0  0  0  0  0  0  0  0  0  0  0  0
  142.0500  125.2260  103.7590 H   0  0  0  0  0  0  0  0  0  0  0  0
  140.4190  124.4020  105.1760 H   0  0  0  0  0  0  0  0  0  0  0  0
   98.0800  121.2820  112.2670 C   0  0  0  0  0  0  0  0  0  0  0  0
   98.2120  119.8310  111.8100 C   0  0  0  0  0  0  0  0  0  0  0  0
   98.9350  119.5310  110.6670 C   0  0  0  0  0  0  0  0  0  0  0  0
   99.0670  118.2160  110.2410 C   0  0  0  0  0  0  0  0  0  0  0  0
   98.4580  117.2100  110.9790 C   0  0  0  0  0  0  0  0  0  0  0  0
   97.7320  117.5080  112.1210 C   0  0  0  0  0  0  0  0  0  0  0  0
   97.6060  118.8220  112.5390 C   0  0  0  0  0  0  0  0  0  0  0  0
   96.8550  119.1510  113.7410 N   0  0  0  0  0  0  0  0  0  0  0  0
   95.4340  118.8670  113.8330 C   0  0  0  0  0  0  0  0  0  0  0  0
   94.8160  118.5990  112.8580 O   0  0  0  0  0  0  0  0  0  0  0  0
   94.8000  118.9080  115.0800 O   0  0  0  0  0  0  0  0  0  0  0  0
   93.5550  119.5460  115.0740 C   0  0  0  0  0  0  0  0  0  0  0  0
   97.0770  116.3750  112.9090 C   0  0  0  0  0  0  0  0  0  0  0  0
   99.8310  117.9160  109.0310 N   0  0  0  0  0  0  0  0  0  0  0  0
  100.7370  118.9160  108.4850 C   0  0  0  0  0  0  0  0  0  0  0  0
   99.9760  119.7830  107.4820 C   0  0  0  0  0  0  0  0  0  0  0  0
   99.3790  120.4470  106.6990 C   0  0  0  0  0  0  0  0  0  0  0  0
   99.6590  116.6480  108.3230 C   0  0  0  0  0  0  0  0  0  0  0  0
  100.9840  115.9790  107.9460 C   0  0  0  0  0  0  0  0  0  0  0  0
  101.9130  115.6680  108.9220 C   0  0  0  0  0  0  0  0  0  0  0  0
  103.1030  115.0570  108.5700 C   0  0  0  0  0  0  0  0  0  0  0  0
  103.3650  114.7530  107.2460 C   0  0  0  0  0  0  0  0  0  0  0  0
  102.4350  115.0600  106.2690 C   0  0  0  0  0  0  0  0  0  0  0  0
  101.2440  115.6710  106.6210 C   0  0  0  0  0  0  0  0  0  0  0  0
  104.5400  114.1500  106.9030 F   0  0  0  0  0  0  0  0  0  0  0  0
   98.5620  121.4030  113.0640 H   0  0  0  0  0  0  0  0  0  0  0  0
   97.1760  121.4830  112.4140 H   0  0  0  0  0  0  0  0  0  0  0  0
   98.4250  121.8510  111.6040 H   0  0  0  0  0  0  0  0  0  0  0  0
   99.3360  120.2150  110.1850 H   0  0  0  0  0  0  0  0  0  0  0  0
   98.5340  116.3270  110.7060 H   0  0  0  0  0  0  0  0  0  0  0  0
   97.2610  119.5220  114.4120 H   0  0  0  0  0  0  0  0  0  0  0  0
   93.3490  119.8390  115.9420 H   0  0  0  0  0  0  0  0  0  0  0  0
   92.8960  118.9440  114.7840 H   0  0  0  0  0  0  0  0  0  0  0  0
   93.5830  120.2840  114.4930 H   0  0  0  0  0  0  0  0  0  0  0  0
   97.3430  116.4240  113.8080 H   0  0  0  0  0  0  0  0  0  0  0  0
   97.3460  115.5490  112.5500 H   0  0  0  0  0  0  0  0  0  0  0  0
   96.1420  116.4490  112.8530 H   0  0  0  0  0  0  0  0  0  0  0  0
  101.0760  119.4560  109.1740 H   0  0  0  0  0  0  0  0  0  0  0  0
  101.4560  118.5040  108.0470 H   0  0  0  0  0  0  0  0  0  0  0  0
   98.9210  120.9580  106.0960 H   0  0  0  0  0  0  0  0  0  0  0  0
   99.1650  116.0430  108.8380 H   0  0  0  0  0  0  0  0  0  0  0  0
   99.1830  116.8200  107.5340 H   0  0  0  0  0  0  0  0  0  0  0  0
  101.7390  115.8720  109.8120 H   0  0  0  0  0  0  0  0  0  0  0  0
  103.7290  114.8500  109.2240 H   0  0  0  0  0  0  0  0  0  0  0  0
  102.6090  114.8570  105.3800 H   0  0  0  0  0  0  0  0  0  0  0  0
  100.6210  115.8780  105.9650 H   0  0  0  0  0  0  0  0  0  0  0  0
  1  2  1  0  0  0  0
  2  3  1  0  0  0  0
  3  4  2  0  0  0  0
  4  5  1  0  0  0  0
  5  6  2  0  0  0  0
  2  7  2  0  0  0  0
  6  7  1  0  0  0  0
  7  8  1  0  0  0  0
  8  9  1  0  0  0  0
  9 10  2  0  0  0  0
  9 11  1  0  0  0  0
 11 12  1  0  0  0  0
  6 13  1  0  0  0  0
  4 14  1  0  0  0  0
 14 15  1  0  0  0  0
 15 16  1  0  0  0  0
 16 17  3  0  0  0  0
 14 18  1  0  0  0  0
 18 19  1  0  0  0  0
 19 20  2  0  0  0  0
 20 21  1  0  0  0  0
 21 22  2  0  0  0  0
 22 23  1  0  0  0  0
 19 24  1  0  0  0  0
 23 24  2  0  0  0  0
 22 25  1  0  0  0  0
  1 26  1  0  0  0  0
  1 27  1  0  0  0  0
  1 28  1  0  0  0  0
  3 29  1  0  0  0  0
  5 30  1  0  0  0  0
  8 31  1  0  0  0  0
 12 32  1  0  0  0  0
 12 33  1  0  0  0  0
 12 34  1  0  0  0  0
 13 35  1  0  0  0  0
 13 36  1  0  0  0  0
 13 37  1  0  0  0  0
 15 38  1  0  0  0  0
 15 39  1  0  0  0  0
 17 40  1  0  0  0  0
 18 41  1  0  0  0  0
 18 42  1  0  0  0  0
 20 43  1  0  0  0  0
 21 44  1  0  0  0  0
 23 45  1  0  0  0  0
 24 46  1  0  0  0  0
 47 48  1  0  0  0  0
 48 49  1  0  0  0  0
 49 50  2  0  0  0  0
 50 51  1  0  0  0  0
 51 52  2  0  0  0  0
 48 53  2  0  0  0  0
 52 53  1  0  0  0  0
 53 54  1  0  0  0  0
 54 55  1  0  0  0  0
 55 56  2  0  0  0  0
 55 57  1  0  0  0  0
 57 58  1  0  0  0  0
 52 59  1  0  0  0  0
 50 60  1  0  0  0  0
 60 61  1  0  0  0  0
 61 62  1  0  0  0  0
 62 63  3  0  0  0  0
 60 64  1  0  0  0  0
 64 65  1  0  0  0  0
 65 66  2  0  0  0  0
 66 67  1  0  0  0  0
 67 68  2  0  0  0  0
 68 69  1  0  0  0  0
 65 70  1  0  0  0  0
 69 70  2  0  0  0  0
 68 71  1  0  0  0  0
 47 72  1  0  0  0  0
 47 73  1  0  0  0  0
 47 74  1  0  0  0  0
 49 75  1  0  0  0  0
 51 76  1  0  0  0  0
 54 77  1  0  0  0  0
 58 78  1  0  0  0  0
 58 79  1  0  0  0  0
 58 80  1  0  0  0  0
 59 81  1  0  0  0  0
 59 82  1  0  0  0  0
 59 83  1  0  0  0  0
 61 84  1  0  0  0  0
 61 85  1  0  0  0  0
 63 86  1  0  0  0  0
 64 87  1  0  0  0  0
 64 88  1  0  0  0  0
 66 89  1  0  0  0  0
 67 90  1  0  0  0  0
 69 91  1  0  0  0  0
 70 92  1  0  0  0  0
 93 94  1  0  0  0  0
 94 95  1  0  0  0  0
 95 96  2  0  0  0  0
 96 97  1  0  0  0  0
 97 98  2  0  0  0  0
 94 99  2  0  0  0  0
 98 99  1  0  0  0  0
 99100  1  0  0  0  0
100101  1  0  0  0  0
101102  2  0  0  0  0
101103  1  0  0  0  0
103104  1  0  0  0  0
 98105  1  0  0  0  0
 96106  1  0  0  0  0
106107  1  0  0  0  0
107108  1  0  0  0  0
108109  3  0  0  0  0
106110  1  0  0  0  0
110111  1  0  0  0  0
111112  2  0  0  0  0
112113  1  0  0  0  0
113114  2  0  0  0  0
114115  1  0  0  0  0
111116  1  0  0  0  0
115116  2  0  0  0  0
114117  1  0  0  0  0
 93118  1  0  0  0  0
 93119  1  0  0  0  0
 93120  1  0  0  0  0
 95121  1  0  0  0  0
 97122  1  0  0  0  0
100123  1  0  0  0  0
104124  1  0  0  0  0
104125  1  0  0  0  0
104126  1  0  0  0  0
105127  1  0  0  0  0
105128  1  0  0  0  0
105129  1  0  0  0  0
107130  1  0  0  0  0
107131  1  0  0  0  0
109132  1  0  0  0  0
110133  1  0  0  0  0
110134  1  0  0  0  0
112135  1  0  0  0  0
113136  1  0  0  0  0
115137  1  0  0  0  0
116138  1  0  0  0  0
139140  1  0  0  0  0
140141  1  0  0  0  0
141142  2  0  0  0  0
142143  1  0  0  0  0
143144  2  0  0  0  0
140145  2  0  0  0  0
144145  1  0  0  0  0
145146  1  0  0  0  0
146147  1  0  0  0  0
147148  2  0  0  0  0
147149  1  0  0  0  0
149150  1  0  0  0  0
144151  1  0  0  0  0
142152  1  0  0  0  0
152153  1  0  0  0  0
153154  1  0  0  0  0
154155  3  0  0  0  0
152156  1  0  0  0  0
156157  1  0  0  0  0
157158  2  0  0  0  0
158159  1  0  0  0  0
159160  2  0  0  0  0
160161  1  0  0  0  0
157162  1  0  0  0  0
161162  2  0  0  0  0
160163  1  0  0  0  0
139164  1  0  0  0  0
139165  1  0  0  0  0
139166  1  0  0  0  0
141167  1  0  0  0  0
143168  1  0  0  0  0
146169  1  0  0  0  0
150170  1  0  0  0  0
150171  1  0  0  0  0
150172  1  0  0  0  0
151173  1  0  0  0  0
151174  1  0  0  0  0
151175  1  0  0  0  0
153176  1  0  0  0  0
153177  1  0  0  0  0
155178  1  0  0  0  0
156179  1  0  0  0  0
156180  1  0  0  0  0
158181  1  0  0  0  0
159182  1  0  0  0  0
161183  1  0  0  0  0
162184  1  0  0  0  0
185186  1  0  0  0  0
186187  1  0  0  0  0
187188  2  0  0  0  0
188189  1  0  0  0  0
189190  2  0  0  0  0
186191  2  0  0  0  0
190191  1  0  0  0  0
191192  1  0  0  0  0
192193  1  0  0  0  0
193194  2  0  0  0  0
193195  1  0  0  0  0
195196  1  0  0  0  0
190197  1  0  0  0  0
188198  1  0  0  0  0
198199  1  0  0  0  0
199200  1  0  0  0  0
200201  3  0  0  0  0
198202  1  0  0  0  0
202203  1  0  0  0  0
203204  2  0  0  0  0
204205  1  0  0  0  0
205206  2  0  0  0  0
206207  1  0  0  0  0
203208  1  0  0  0  0
207208  2  0  0  0  0
206209  1  0  0  0  0
185210  1  0  0  0  0
185211  1  0  0  0  0
185212  1  0  0  0  0
187213  1  0  0  0  0
189214  1  0  0  0  0
192215  1  0  0  0  0
196216  1  0  0  0  0
196217  1  0  0  0  0
196218  1  0  0  0  0
197219  1  0  0  0  0
197220  1  0  0  0  0
197221  1  0  0  0  0
199222  1  0  0  0  0
199223  1  0  0  0  0
201224  1  0  0  0  0
202225  1  0  0  0  0
202226  1  0  0  0  0
204227  1  0  0  0  0
205228  1  0  0  0  0
207229  1  0  0  0  0
208230  1  0  0  0  0
231232  1  0  0  0  0
232233  1  0  0  0  0
233234  2  0  0  0  0
234235  1  0  0  0  0
235236  2  0  0  0  0
232237  2  0  0  0  0
236237  1  0  0  0  0
237238  1  0  0  0  0
238239  1  0  0  0  0
239240  2  0  0  0  0
239241  1  0  0  0  0
241242  1  0  0  0  0
236243  1  0  0  0  0
234244  1  0  0  0  0
244245  1  0  0  0  0
245246  1  0  0  0  0
246247  3  0  0  0  0
244248  1  0  0  0  0
248249  1  0  0  0  0
249250  2  0  0  0  0
250251  1  0  0  0  0
251252  2  0  0  0  0
252253  1  0  0  0  0
249254  1  0  0  0  0
253254  2  0  0  0  0
252255  1  0  0  0  0
231256  1  0  0  0  0
231257  1  0  0  0  0
231258  1  0  0  0  0
233259  1  0  0  0  0
235260  1  0  0  0  0
238261  1  0  0  0  0
242262  1  0  0  0  0
242263  1  0  0  0  0
242264  1  0  0  0  0
243265  1  0  0  0  0
243266  1  0  0  0  0
243267  1  0  0  0  0
245268  1  0  0  0  0
245269  1  0  0  0  0
247270  1  0  0  0  0
248271  1  0  0  0  0
248272  1  0  0  0  0
250273  1  0  0  0  0
251274  1  0  0  0  0
253275  1  0  0  0  0
254276  1  0  0  0  0
277278  1  0  0  0  0
278279  1  0  0  0  0
279280  2  0  0  0  0
280281  1  0  0  0  0
281282  2  0  0  0  0
278283  2  0  0  0  0
282283  1  0  0  0  0
283284  1  0  0  0  0
284285  1  0  0  0  0
285286  2  0  0  0  0
285287  1  0  0  0  0
287288  1  0  0  0  0
282289  1  0  0  0  0
280290  1  0  0  0  0
290291  1  0  0  0  0
291292  1  0  0  0  0
292293  3  0  0  0  0
290294  1  0  0  0  0
294295  1  0  0  0  0
295296  2  0  0  0  0
296297  1  0  0  0  0
297298  2  0  0  0  0
298299  1  0  0  0  0
295300  1  0  0  0  0
299300  2  0  0  0  0
298301  1  0  0  0  0
277302  1  0  0  0  0
277303  1  0  0  0  0
277304  1  0  0  0  0
279305  1  0  0  0  0
281306  1  0  0  0  0
284307  1  0  0  0  0
288308  1  0  0  0  0
288309  1  0  0  0  0
288310  1  0  0  0  0
289311  1  0  0  0  0
289312  1  0  0  0  0
289313  1  0  0  0  0
291314  1  0  0  0  0
291315  1  0  0  0  0
293316  1  0  0  0  0
294317  1  0  0  0  0
294318  1  0  0  0  0
296319  1  0  0  0  0
297320  1  0  0  0  0
299321  1  0  0  0  0
300322  1  0  0  0  0
323324  1  0  0  0  0
324325  1  0  0  0  0
325326  2  0  0  0  0
326327  1  0  0  0  0
327328  2  0  0  0  0
324329  2  0  0  0  0
328329  1  0  0  0  0
329330  1  0  0  0  0
330331  1  0  0  0  0
331332  2  0  0  0  0
331333  1  0  0  0  0
333334  1  0  0  0  0
328335  1  0  0  0  0
326336  1  0  0  0  0
336337  1  0  0  0  0
337338  1  0  0  0  0
338339  3  0  0  0  0
336340  1  0  0  0  0
340341  1  0  0  0  0
341342  2  0  0  0  0
342343  1  0  0  0  0
343344  2  0  0  0  0
344345  1  0  0  0  0
341346  1  0  0  0  0
345346  2  0  0  0  0
344347  1  0  0  0  0
323348  1  0  0  0  0
323349  1  0  0  0  0
323350  1  0  0  0  0
325351  1  0  0  0  0
327352  1  0  0  0  0
330353  1  0  0  0  0
334354  1  0  0  0  0
334355  1  0  0  0  0
334356  1  0  0  0  0
335357  1  0  0  0  0
335358  1  0  0  0  0
335359  1  0  0  0  0
337360  1  0  0  0  0
337361  1  0  0  0  0
339362  1  0  0  0  0
340363  1  0  0  0  0
340364  1  0  0  0  0
342365  1  0  0  0  0
343366  1  0  0  0  0
345367  1  0  0  0  0
346368  1  0  0  0  0
M  END
$$$$
