7WKW
  PyMOL3.1          3D                             0

 34 36  0  0  0  0  0  0  0  0999 V2000
   94.6580  111.6880  101.1890 C   0  0  0  0  0  0  0  0  0  0  0  0
   94.2850  112.5240  100.1450 C   0  0  0  0  0  0  0  0  0  0  0  0
   94.8610  113.7800  100.0170 C   0  0  0  0  0  0  0  0  0  0  0  0
   95.8240  114.2130  100.9450 C   0  0  0  0  0  0  0  0  0  0  0  0
   96.1900  113.3830  101.9770 C   0  0  0  0  0  0  0  0  0  0  0  0
   95.6060  112.1120  102.1050 C   0  0  0  0  0  0  0  0  0  0  0  0
   97.1500  113.8030  102.9130 C   0  0  0  0  0  0  0  0  0  0  0  0
   97.7280  115.0560  102.7930 C   0  0  0  0  0  0  0  0  0  0  0  0
   97.3560  115.8960  101.7510 C   0  0  0  0  0  0  0  0  0  0  0  0
   96.4110  115.4880  100.8160 C   0  0  0  0  0  0  0  0  0  0  0  0
   95.9980  116.3560   99.7180 N   0  0  0  0  0  0  0  0  0  0  0  0
   96.7470  117.5350   99.3000 C   0  0  0  0  0  0  0  0  0  0  0  0
   97.7560  117.8420   99.8320 O   0  0  0  0  0  0  0  0  0  0  0  0
   96.2420  118.4040   98.1440 C   0  0  0  0  0  0  0  0  0  0  0  0
   97.1500  118.8480   97.1990 C   0  0  0  0  0  0  0  0  0  0  0  0
   96.7290  119.6380   96.1430 C   0  0  0  0  0  0  0  0  0  0  0  0
   95.3960  119.9910   96.0290 C   0  0  0  0  0  0  0  0  0  0  0  0
   94.4850  119.5530   96.9730 C   0  0  0  0  0  0  0  0  0  0  0  0
   94.9030  118.7650   98.0320 C   0  0  0  0  0  0  0  0  0  0  0  0
   93.8670  118.2990   99.0520 C   0  0  0  0  0  0  0  0  0  0  0  0
   93.7000  118.9370  100.1220 O   0  0  0  0  0  0  0  0  0  0  0  0
   93.1740  117.2770   98.8180 O   0  0  0  0  0  0  0  0  0  0  0  0
   94.2740  110.8450  101.2720 H   0  0  0  0  0  0  0  0  0  0  0  0
   93.6490  112.2400   99.5290 H   0  0  0  0  0  0  0  0  0  0  0  0
   94.6060  114.3370   99.3170 H   0  0  0  0  0  0  0  0  0  0  0  0
   95.8590  111.5530  102.8040 H   0  0  0  0  0  0  0  0  0  0  0  0
   97.3980  113.2400  103.6100 H   0  0  0  0  0  0  0  0  0  0  0  0
   98.3640  115.3350  103.4110 H   0  0  0  0  0  0  0  0  0  0  0  0
   97.7490  116.7340  101.6780 H   0  0  0  0  0  0  0  0  0  0  0  0
   95.2680  116.1730   99.3030 H   0  0  0  0  0  0  0  0  0  0  0  0
   98.0470  118.6120   97.2720 H   0  0  0  0  0  0  0  0  0  0  0  0
   97.3430  119.9310   95.5100 H   0  0  0  0  0  0  0  0  0  0  0  0
   95.1140  120.5220   95.3200 H   0  0  0  0  0  0  0  0  0  0  0  0
   93.5890  119.7910   96.8980 H   0  0  0  0  0  0  0  0  0  0  0  0
  1  2  2  0  0  0  0
  2  3  1  0  0  0  0
  3  4  2  0  0  0  0
  4  5  1  0  0  0  0
  1  6  1  0  0  0  0
  5  6  2  0  0  0  0
  5  7  1  0  0  0  0
  7  8  2  0  0  0  0
  8  9  1  0  0  0  0
  4 10  1  0  0  0  0
  9 10  2  0  0  0  0
 10 11  1  0  0  0  0
 11 12  1  0  0  0  0
 12 13  2  0  0  0  0
 12 14  1  0  0  0  0
 14 15  1  0  0  0  0
 15 16  2  0  0  0  0
 16 17  1  0  0  0  0
 17 18  2  0  0  0  0
 14 19  2  0  0  0  0
 18 19  1  0  0  0  0
 19 20  1  0  0  0  0
 20 21  1  0  0  0  0
 20 22  2  0  0  0  0
  1 23  1  0  0  0  0
  2 24  1  0  0  0  0
  3 25  1  0  0  0  0
  6 26  1  0  0  0  0
  7 27  1  0  0  0  0
  8 28  1  0  0  0  0
  9 29  1  0  0  0  0
 11 30  1  0  0  0  0
 15 31  1  0  0  0  0
 16 32  1  0  0  0  0
 17 33  1  0  0  0  0
 18 34  1  0  0  0  0
M  END
$$$$
