7XUH
  PyMOL3.1          3D                             0

 29 31  0  0  0  0  0  0  0  0999 V2000
   98.6050  136.0040  111.3130 O   0  0  0  0  0  0  0  0  0  0  0  0
  102.4630  133.5920  109.9530 O   0  0  0  0  0  0  0  0  0  0  0  0
   96.7670  137.2870  111.8370 O   0  0  0  0  0  0  0  0  0  0  0  0
   97.3860  139.5520  113.5940 O   0  0  0  0  0  0  0  0  0  0  0  0
   98.5580  139.7680  115.4180 O   0  0  0  0  0  0  0  0  0  0  0  0
  100.2700  135.5970  112.8860 C   0  0  0  0  0  0  0  0  0  0  0  0
   99.6420  135.5450  111.5940 C   0  0  0  0  0  0  0  0  0  0  0  0
   99.7130  136.2270  114.0320 C   0  0  0  0  0  0  0  0  0  0  0  0
  100.5300  134.7670  110.5110 C   0  0  0  0  0  0  0  0  0  0  0  0
   98.2950  136.6910  113.8860 C   0  0  0  0  0  0  0  0  0  0  0  0
  101.6550  134.3050  110.9300 C   0  0  0  0  0  0  0  0  0  0  0  0
  101.5670  134.9150  112.8640 C   0  0  0  0  0  0  0  0  0  0  0  0
  102.1480  134.3390  111.9420 C   0  0  0  0  0  0  0  0  0  0  0  0
   97.7410  136.7250  112.1950 C   0  0  0  0  0  0  0  0  0  0  0  0
   97.6360  137.5750  114.9720 C   0  0  0  0  0  0  0  0  0  0  0  0
  100.3100  136.1020  115.3980 C   0  0  0  0  0  0  0  0  0  0  0  0
   99.9740  134.6270  109.0840 C   0  0  0  0  0  0  0  0  0  0  0  0
  103.5550  134.3640  109.3730 C   0  0  0  0  0  0  0  0  0  0  0  0
  104.8220  133.5470  109.0170 C   0  0  0  0  0  0  0  0  0  0  0  0
  105.3530  132.6000  109.9040 C   0  0  0  0  0  0  0  0  0  0  0  0
  106.4840  131.9210  109.5650 C   0  0  0  0  0  0  0  0  0  0  0  0
  105.4540  133.7860  107.8060 C   0  0  0  0  0  0  0  0  0  0  0  0
   97.8770  139.0490  114.6450 C   0  0  0  0  0  0  0  0  0  0  0  0
  107.1200  132.1560  108.3480 C   0  0  0  0  0  0  0  0  0  0  0  0
  106.5880  133.1060  107.4600 C   0  0  0  0  0  0  0  0  0  0  0  0
  107.0550  130.8930  110.5360 C   0  0  0  0  0  0  0  0  0  0  0  0
  106.8340  129.6360  110.0800 F   0  0  0  0  0  0  0  0  0  0  0  0
  108.4020  131.1010  110.6850 F   0  0  0  0  0  0  0  0  0  0  0  0
  106.4450  131.0680  111.7450 F   0  0  0  0  0  0  0  0  0  0  0  0
  1  7  1  0  0  0  0
  6  7  2  0  0  0  0
  6  8  1  0  0  0  0
  7  9  1  0  0  0  0
  8 10  2  0  0  0  0
  2 11  1  0  0  0  0
  9 11  2  0  0  0  0
  6 12  1  0  0  0  0
 11 13  1  0  0  0  0
 12 13  2  0  0  0  0
  1 14  1  0  0  0  0
  3 14  2  0  0  0  0
 10 14  1  0  0  0  0
 10 15  1  0  0  0  0
  8 16  1  0  0  0  0
  9 17  1  0  0  0  0
  2 18  1  0  0  0  0
 18 19  1  0  0  0  0
 19 20  2  0  0  0  0
 20 21  1  0  0  0  0
 19 22  1  0  0  0  0
  4 23  2  0  0  0  0
  5 23  1  0  0  0  0
 15 23  1  0  0  0  0
 21 24  2  0  0  0  0
 22 25  2  0  0  0  0
 24 25  1  0  0  0  0
 21 26  1  0  0  0  0
 26 27  1  0  0  0  0
 26 28  1  0  0  0  0
 26 29  1  0  0  0  0
M  END
$$$$
