7XUH
  PyMOL3.1          3D                             0

 29 31  0  0  0  0  0  0  0  0999 V2000
  136.1720   98.7700  111.3290 O   0  0  0  0  0  0  0  0  0  0  0  0
  132.3140  101.1820  109.9700 O   0  0  0  0  0  0  0  0  0  0  0  0
  138.0100   97.4880  111.8540 O   0  0  0  0  0  0  0  0  0  0  0  0
  137.3910   95.2220  113.6110 O   0  0  0  0  0  0  0  0  0  0  0  0
  136.2190   95.0070  115.4340 O   0  0  0  0  0  0  0  0  0  0  0  0
  134.5070   99.1770  112.9030 C   0  0  0  0  0  0  0  0  0  0  0  0
  135.1350   99.2300  111.6100 C   0  0  0  0  0  0  0  0  0  0  0  0
  135.0640   98.5480  114.0490 C   0  0  0  0  0  0  0  0  0  0  0  0
  134.2480  100.0070  110.5280 C   0  0  0  0  0  0  0  0  0  0  0  0
  136.4830   98.0830  113.9030 C   0  0  0  0  0  0  0  0  0  0  0  0
  133.1220  100.4690  110.9460 C   0  0  0  0  0  0  0  0  0  0  0  0
  133.2100   99.8590  112.8810 C   0  0  0  0  0  0  0  0  0  0  0  0
  132.6300  100.4350  111.9580 C   0  0  0  0  0  0  0  0  0  0  0  0
  137.0360   98.0490  112.2120 C   0  0  0  0  0  0  0  0  0  0  0  0
  137.1410   97.1990  114.9890 C   0  0  0  0  0  0  0  0  0  0  0  0
  134.4670   98.6730  115.4140 C   0  0  0  0  0  0  0  0  0  0  0  0
  134.8030  100.1470  109.1010 C   0  0  0  0  0  0  0  0  0  0  0  0
  131.2220  100.4100  109.3890 C   0  0  0  0  0  0  0  0  0  0  0  0
  129.9560  101.2270  109.0330 C   0  0  0  0  0  0  0  0  0  0  0  0
  129.4240  102.1740  109.9200 C   0  0  0  0  0  0  0  0  0  0  0  0
  128.2930  102.8530  109.5810 C   0  0  0  0  0  0  0  0  0  0  0  0
  129.3230  100.9880  107.8220 C   0  0  0  0  0  0  0  0  0  0  0  0
  136.9000   95.7250  114.6620 C   0  0  0  0  0  0  0  0  0  0  0  0
  127.6570  102.6180  108.3640 C   0  0  0  0  0  0  0  0  0  0  0  0
  128.1890  101.6680  107.4760 C   0  0  0  0  0  0  0  0  0  0  0  0
  127.7220  103.8810  110.5520 C   0  0  0  0  0  0  0  0  0  0  0  0
  127.9430  105.1380  110.0960 F   0  0  0  0  0  0  0  0  0  0  0  0
  126.3750  103.6730  110.7010 F   0  0  0  0  0  0  0  0  0  0  0  0
  128.3320  103.7060  111.7610 F   0  0  0  0  0  0  0  0  0  0  0  0
  1  7  1  0  0  0  0
  6  7  2  0  0  0  0
  6  8  1  0  0  0  0
  7  9  1  0  0  0  0
  8 10  2  0  0  0  0
  2 11  1  0  0  0  0
  9 11  2  0  0  0  0
  6 12  1  0  0  0  0
 11 13  1  0  0  0  0
 12 13  2  0  0  0  0
  1 14  1  0  0  0  0
  3 14  2  0  0  0  0
 10 14  1  0  0  0  0
 10 15  1  0  0  0  0
  8 16  1  0  0  0  0
  9 17  1  0  0  0  0
  2 18  1  0  0  0  0
 18 19  1  0  0  0  0
 19 20  2  0  0  0  0
 20 21  1  0  0  0  0
 19 22  1  0  0  0  0
  4 23  2  0  0  0  0
  5 23  1  0  0  0  0
 15 23  1  0  0  0  0
 21 24  2  0  0  0  0
 22 25  2  0  0  0  0
 24 25  1  0  0  0  0
 21 26  1  0  0  0  0
 26 27  1  0  0  0  0
 26 28  1  0  0  0  0
 26 29  1  0  0  0  0
M  END
$$$$
