7ALV
  PyMOL3.1          3D                             0

 29 30  0  0  0  0  0  0  0  0999 V2000
   21.6460   32.0500  124.1200 Cl  0  0  0  0  0  0  0  0  0  0  0  0
   15.4300   38.8360  125.1790 C   0  0  0  0  0  0  0  0  0  0  0  0
   14.5830   38.4680  124.2050 C   0  0  0  0  0  0  0  0  0  0  0  0
   13.8470   37.3670  124.8320 C   0  0  0  0  0  0  0  0  0  0  0  0
   14.4000   37.3060  126.0460 C   0  0  0  0  0  0  0  0  0  0  0  0
   15.3660   38.1660  126.3350 O   0  0  0  0  0  0  0  0  0  0  0  0
   14.4380   39.0120  122.7900 C   0  0  0  0  0  0  0  0  0  0  0  0
   13.0560   39.0390  122.4100 O   0  0  0  0  0  0  0  0  0  0  0  0
   14.9390   40.4660  122.6560 C   0  0  0  0  0  0  0  0  0  0  0  0
   13.9100   36.1920  127.2460 S   0  0  0  0  0  0  0  0  0  0  0  0
   15.3290   35.5190  127.7050 N   0  0  0  0  0  0  0  0  0  0  0  0
   13.4660   36.9420  128.3920 O   0  0  0  0  0  0  0  0  0  0  0  0
   13.0560   35.2060  126.6430 O   0  0  0  0  0  0  0  0  0  0  0  0
   15.2360   38.1270  121.8000 C   0  0  0  0  0  0  0  0  0  0  0  0
   16.1910   34.8590  126.9080 C   0  0  0  0  0  0  0  0  0  0  0  0
   17.3410   34.3990  127.4610 N   0  0  0  0  0  0  0  0  0  0  0  0
   15.9340   34.6220  125.7370 O   0  0  0  0  0  0  0  0  0  0  0  0
   18.3130   33.7450  126.6670 C   0  0  0  0  0  0  0  0  0  0  0  0
   19.0050   34.5810  125.7640 C   0  0  0  0  0  0  0  0  0  0  0  0
   20.0180   34.0500  124.9850 C   0  0  0  0  0  0  0  0  0  0  0  0
   20.3760   32.7150  125.1300 C   0  0  0  0  0  0  0  0  0  0  0  0
   19.7360   31.9050  126.0710 C   0  0  0  0  0  0  0  0  0  0  0  0
   18.6920   32.3980  126.8540 C   0  0  0  0  0  0  0  0  0  0  0  0
   18.6580   36.0730  125.5920 C   0  0  0  0  0  0  0  0  0  0  0  0
   19.9020   36.8900  125.9950 C   0  0  0  0  0  0  0  0  0  0  0  0
   18.1980   36.4540  124.1570 C   0  0  0  0  0  0  0  0  0  0  0  0
   18.0450   31.4160  127.8550 C   0  0  0  0  0  0  0  0  0  0  0  0
   17.7850   30.0640  127.1520 C   0  0  0  0  0  0  0  0  0  0  0  0
   19.0380   31.1470  129.0090 C   0  0  0  0  0  0  0  0  0  0  0  0
  2  3  2  0  0  0  0
  3  4  1  0  0  0  0
  4  5  2  0  0  0  0
  2  6  1  0  0  0  0
  5  6  1  0  0  0  0
  3  7  1  0  0  0  0
  7  8  1  0  0  0  0
  7  9  1  0  0  0  0
  5 10  1  0  0  0  0
 10 11  1  0  0  0  0
 10 12  2  0  0  0  0
 10 13  2  0  0  0  0
  7 14  1  0  0  0  0
 11 15  1  0  0  0  0
 15 16  1  0  0  0  0
 15 17  2  0  0  0  0
 16 18  1  0  0  0  0
 18 19  2  0  0  0  0
 19 20  1  0  0  0  0
  1 21  1  0  0  0  0
 20 21  2  0  0  0  0
 21 22  1  0  0  0  0
 18 23  1  0  0  0  0
 22 23  2  0  0  0  0
 19 24  1  0  0  0  0
 24 25  1  0  0  0  0
 24 26  1  0  0  0  0
 23 27  1  0  0  0  0
 27 28  1  0  0  0  0
 27 29  1  0  0  0  0
M  END
$$$$
