7E2Y
  PyMOL3.1          3D                             0

 13 14  0  0  0  0  0  0  0  0999 V2000
  100.1170  112.9800  108.4230 C   0  0  0  0  0  0  0  0  0  0  0  0
  101.4360  113.0770  109.1870 C   0  0  0  0  0  0  0  0  0  0  0  0
  102.5400  113.5870  108.2630 C   0  0  0  0  0  0  0  0  0  0  0  0
  102.9840  112.9260  107.1460 C   0  0  0  0  0  0  0  0  0  0  0  0
  103.2830  114.8830  108.4690 C   0  0  0  0  0  0  0  0  0  0  0  0
  104.1850  114.8980  107.3680 C   0  0  0  0  0  0  0  0  0  0  0  0
  103.2860  115.9170  109.3580 C   0  0  0  0  0  0  0  0  0  0  0  0
  103.9170  113.7360  106.6940 N   0  0  0  0  0  0  0  0  0  0  0  0
  105.0600  115.9100  107.1610 C   0  0  0  0  0  0  0  0  0  0  0  0
  104.1710  117.0100  109.2110 C   0  0  0  0  0  0  0  0  0  0  0  0
   99.1770  112.1750  109.1810 N   0  0  0  0  0  0  0  0  0  0  0  0
  105.1050  117.0860  108.1240 C   0  0  0  0  0  0  0  0  0  0  0  0
  104.1350  118.0470  110.1520 O   0  0  0  0  0  0  0  0  0  0  0  0
  1 11  1  0  0  0  0
  1  2  1  0  0  0  0
  2  3  1  0  0  0  0
  3  5  4  0  0  0  0
  3  4  4  0  0  0  0
  5  7  4  0  0  0  0
  5  6  4  0  0  0  0
  6  8  4  0  0  0  0
  4  8  4  0  0  0  0
  6  9  4  0  0  0  0
  7 10  4  0  0  0  0
 10 12  4  0  0  0  0
  9 12  4  0  0  0  0
 10 13  1  0  0  0  0
M  END
$$$$
