7UKZ
  PyMOL3.1          3D                             0

168186  0  0  0  0  0  0  0  0999 V2000
   26.6080  -11.2640   14.7170 C   0  0  0  0  0  0  0  0  0  0  0  0
   27.2890  -10.1060   15.4490 C   0  0  0  0  0  0  0  0  0  0  0  0
   28.1950  -10.3600   16.4730 C   0  0  0  0  0  0  0  0  0  0  0  0
   28.8640   -9.3310   17.1940 C   0  0  0  0  0  0  0  0  0  0  0  0
   28.6520   -7.9430   16.9210 C   0  0  0  0  0  0  0  0  0  0  0  0
   27.7140   -7.6520   15.8670 C   0  0  0  0  0  0  0  0  0  0  0  0
   27.0410   -8.7170   15.1380 C   0  0  0  0  0  0  0  0  0  0  0  0
   26.1280   -8.3950   14.1040 N   0  0  0  0  0  0  0  0  0  0  0  0
   25.8130   -7.0800   13.7160 C   0  0  0  0  0  0  0  0  0  0  0  0
   24.9790   -6.9070   12.7760 O   0  0  0  0  0  0  0  0  0  0  0  0
   26.4810   -6.0180   14.4370 C   0  0  0  0  0  0  0  0  0  0  0  0
   27.3860   -6.2570   15.4580 C   0  0  0  0  0  0  0  0  0  0  0  0
   27.8380   -4.9510   15.9310 C   0  0  0  0  0  0  0  0  0  0  0  0
   27.2890   -3.8760   15.2880 C   0  0  0  0  0  0  0  0  0  0  0  0
   26.2060   -4.3510   14.0840 S   0  0  0  0  0  0  0  0  0  0  0  0
   29.3940   -6.8520   17.7260 C   0  0  0  0  0  0  0  0  0  0  0  0
   30.6150   -6.2440   17.3610 C   0  0  0  0  0  0  0  0  0  0  0  0
   31.2750   -5.2480   18.1120 C   0  0  0  0  0  0  0  0  0  0  0  0
   30.7900   -4.7350   19.3290 C   0  0  0  0  0  0  0  0  0  0  0  0
   29.5770   -5.3320   19.7000 C   0  0  0  0  0  0  0  0  0  0  0  0
   28.9180   -6.3270   18.9490 C   0  0  0  0  0  0  0  0  0  0  0  0
   31.5080   -3.6370   20.1690 C   0  0  0  0  0  0  0  0  0  0  0  0
   30.5150   -2.6920   20.8690 C   0  0  0  0  0  0  0  0  0  0  0  0
   32.4910   -4.1980   21.2520 C   0  0  0  0  0  0  0  0  0  0  0  0
   32.8650   -5.6610   21.0680 N   0  0  0  0  0  0  0  0  0  0  0  0
   34.3220   -5.8020   21.3720 C   0  0  0  0  0  0  0  0  0  0  0  0
   32.1210   -6.5210   22.0510 C   0  0  0  0  0  0  0  0  0  0  0  0
   29.7490   -9.6140   18.1940 O   0  0  0  0  0  0  0  0  0  0  0  0
   26.0770    7.9620   48.9300 C   0  0  0  0  0  0  0  0  0  0  0  0
   26.6860    6.7870   48.1630 C   0  0  0  0  0  0  0  0  0  0  0  0
   27.6500    7.0110   47.1850 C   0  0  0  0  0  0  0  0  0  0  0  0
   28.2570    5.9650   46.4350 C   0  0  0  0  0  0  0  0  0  0  0  0
   27.9170    4.5890   46.6310 C   0  0  0  0  0  0  0  0  0  0  0  0
   26.9190    4.3280   47.6370 C   0  0  0  0  0  0  0  0  0  0  0  0
   26.3110    5.4110   48.3950 C   0  0  0  0  0  0  0  0  0  0  0  0
   25.3330    5.1220   49.3770 N   0  0  0  0  0  0  0  0  0  0  0  0
   24.8920    3.8220   49.6870 C   0  0  0  0  0  0  0  0  0  0  0  0
   24.0110    3.6790   50.5870 O   0  0  0  0  0  0  0  0  0  0  0  0
   25.4930    2.7400   48.9360 C   0  0  0  0  0  0  0  0  0  0  0  0
   26.4540    2.9480   47.9610 C   0  0  0  0  0  0  0  0  0  0  0  0
   26.8120    1.6320   47.4370 C   0  0  0  0  0  0  0  0  0  0  0  0
   26.1470    0.5770   48.0070 C   0  0  0  0  0  0  0  0  0  0  0  0
   25.0620    1.0880   49.1940 S   0  0  0  0  0  0  0  0  0  0  0  0
   28.5940    3.4800   45.7940 C   0  0  0  0  0  0  0  0  0  0  0  0
   29.7520    2.7590   46.1600 C   0  0  0  0  0  0  0  0  0  0  0  0
   30.3520    1.7500   45.3770 C   0  0  0  0  0  0  0  0  0  0  0  0
   29.8630    1.3370   44.1240 C   0  0  0  0  0  0  0  0  0  0  0  0
   28.7150    2.0490   43.7500 C   0  0  0  0  0  0  0  0  0  0  0  0
   28.1150    3.0570   44.5330 C   0  0  0  0  0  0  0  0  0  0  0  0
   30.5160    0.2290   43.2460 C   0  0  0  0  0  0  0  0  0  0  0  0
   29.4780   -0.5570   42.4270 C   0  0  0  0  0  0  0  0  0  0  0  0
   31.6130    0.7620   42.2620 C   0  0  0  0  0  0  0  0  0  0  0  0
   32.2130    2.1020   42.6580 N   0  0  0  0  0  0  0  0  0  0  0  0
   33.7000    1.9840   42.5610 C   0  0  0  0  0  0  0  0  0  0  0  0
   31.7880    3.1750   41.6960 C   0  0  0  0  0  0  0  0  0  0  0  0
   29.2010    6.2160   45.4820 O   0  0  0  0  0  0  0  0  0  0  0  0
    4.2290  -57.9830    9.9100 C   0  0  0  0  0  0  0  0  0  0  0  0
    5.5290  -57.8880    9.1100 C   0  0  0  0  0  0  0  0  0  0  0  0
    5.6260  -57.0050    8.0390 C   0  0  0  0  0  0  0  0  0  0  0  0
    6.8030  -56.8650    7.2530 C   0  0  0  0  0  0  0  0  0  0  0  0
    7.9890  -57.6250    7.5040 C   0  0  0  0  0  0  0  0  0  0  0  0
    7.9150  -58.5510    8.6040 C   0  0  0  0  0  0  0  0  0  0  0  0
    6.7030  -58.6820    9.4010 C   0  0  0  0  0  0  0  0  0  0  0  0
    6.6680  -59.6000   10.4790 N   0  0  0  0  0  0  0  0  0  0  0  0
    7.7540  -60.4200   10.8470 C   0  0  0  0  0  0  0  0  0  0  0  0
    7.6160  -61.2080   11.8300 O   0  0  0  0  0  0  0  0  0  0  0  0
    8.9580  -60.2930   10.0570 C   0  0  0  0  0  0  0  0  0  0  0  0
    9.0660  -59.4160    8.9910 C   0  0  0  0  0  0  0  0  0  0  0  0
   10.4160  -59.5740    8.4550 C   0  0  0  0  0  0  0  0  0  0  0  0
   11.1960  -60.4930    9.1040 C   0  0  0  0  0  0  0  0  0  0  0  0
   10.3740  -61.2250   10.3840 S   0  0  0  0  0  0  0  0  0  0  0  0
    9.2470  -57.4530    6.6250 C   0  0  0  0  0  0  0  0  0  0  0  0
   10.3110  -56.5560    6.8690 C   0  0  0  0  0  0  0  0  0  0  0  0
   11.4540  -56.4220    6.0510 C   0  0  0  0  0  0  0  0  0  0  0  0
   11.6740  -57.1790    4.8840 C   0  0  0  0  0  0  0  0  0  0  0  0
   10.6240  -58.0730    4.6360 C   0  0  0  0  0  0  0  0  0  0  0  0
    9.4840  -58.2070    5.4530 C   0  0  0  0  0  0  0  0  0  0  0  0
   12.9270  -57.0400    3.9680 C   0  0  0  0  0  0  0  0  0  0  0  0
   13.2540  -58.3420    3.2170 C   0  0  0  0  0  0  0  0  0  0  0  0
   12.8240  -55.8870    2.9120 C   0  0  0  0  0  0  0  0  0  0  0  0
   11.8630  -54.7700    3.2920 N   0  0  0  0  0  0  0  0  0  0  0  0
   12.5020  -53.4710    2.9190 C   0  0  0  0  0  0  0  0  0  0  0  0
   10.5880  -54.8820    2.5040 C   0  0  0  0  0  0  0  0  0  0  0  0
    6.8620  -55.9880    6.2090 O   0  0  0  0  0  0  0  0  0  0  0  0
   77.3210  -10.8590    9.4850 C   0  0  0  0  0  0  0  0  0  0  0  0
   78.6540  -10.9150    8.7360 C   0  0  0  0  0  0  0  0  0  0  0  0
   78.9290   -9.9970    7.7280 C   0  0  0  0  0  0  0  0  0  0  0  0
   80.1460   -9.9940    6.9910 C   0  0  0  0  0  0  0  0  0  0  0  0
   81.1900  -10.9410    7.2340 C   0  0  0  0  0  0  0  0  0  0  0  0
   80.9310  -11.9050    8.2740 C   0  0  0  0  0  0  0  0  0  0  0  0
   79.6790  -11.8930    9.0170 C   0  0  0  0  0  0  0  0  0  0  0  0
   79.4540  -12.8520   10.0350 N   0  0  0  0  0  0  0  0  0  0  0  0
   80.3810  -13.8490   10.3930 C   0  0  0  0  0  0  0  0  0  0  0  0
   80.0730  -14.6560   11.3210 O   0  0  0  0  0  0  0  0  0  0  0  0
   81.6270  -13.8660    9.6580 C   0  0  0  0  0  0  0  0  0  0  0  0
   81.9160  -12.9600    8.6500 C   0  0  0  0  0  0  0  0  0  0  0  0
   83.2490  -13.2950    8.1550 C   0  0  0  0  0  0  0  0  0  0  0  0
   83.8500  -14.3610    8.7730 C   0  0  0  0  0  0  0  0  0  0  0  0
   82.8680  -15.0240    9.9750 S   0  0  0  0  0  0  0  0  0  0  0  0
   82.4950  -10.9050    6.4080 C   0  0  0  0  0  0  0  0  0  0  0  0
   83.6620  -10.1800    6.7360 C   0  0  0  0  0  0  0  0  0  0  0  0
   84.8400  -10.1580    5.9590 C   0  0  0  0  0  0  0  0  0  0  0  0
   84.9930  -10.8600    4.7500 C   0  0  0  0  0  0  0  0  0  0  0  0
   83.8370  -11.5790    4.4120 C   0  0  0  0  0  0  0  0  0  0  0  0
   82.6610  -11.6010    5.1880 C   0  0  0  0  0  0  0  0  0  0  0  0
   86.2840  -10.8420    3.8790 C   0  0  0  0  0  0  0  0  0  0  0  0
   86.6240  -12.2300    3.3100 C   0  0  0  0  0  0  0  0  0  0  0  0
   86.2340   -9.8260    2.6870 C   0  0  0  0  0  0  0  0  0  0  0  0
   85.1100   -8.8050    2.7770 N   0  0  0  0  0  0  0  0  0  0  0  0
   85.6380   -7.6020    3.4920 C   0  0  0  0  0  0  0  0  0  0  0  0
   84.6940   -8.3580    1.4040 C   0  0  0  0  0  0  0  0  0  0  0  0
   80.3880   -9.0810    6.0050 O   0  0  0  0  0  0  0  0  0  0  0  0
   94.8620  -21.8160  -22.9940 C   0  0  0  0  0  0  0  0  0  0  0  0
   94.1200  -20.6510  -22.3390 C   0  0  0  0  0  0  0  0  0  0  0  0
   94.7560  -19.8560  -21.3910 C   0  0  0  0  0  0  0  0  0  0  0  0
   94.1240  -18.7590  -20.7430 C   0  0  0  0  0  0  0  0  0  0  0  0
   92.7710  -18.3850  -21.0220 C   0  0  0  0  0  0  0  0  0  0  0  0
   92.0860  -19.1930  -21.9990 C   0  0  0  0  0  0  0  0  0  0  0  0
   92.7500  -20.3120  -22.6510 C   0  0  0  0  0  0  0  0  0  0  0  0
   92.0520  -21.0860  -23.6090 N   0  0  0  0  0  0  0  0  0  0  0  0
   90.7180  -20.8470  -23.9890 C   0  0  0  0  0  0  0  0  0  0  0  0
   90.1910  -21.6050  -24.8590 O   0  0  0  0  0  0  0  0  0  0  0  0
   90.0520  -19.7380  -23.3430 C   0  0  0  0  0  0  0  0  0  0  0  0
   90.6730  -18.9360  -22.3990 C   0  0  0  0  0  0  0  0  0  0  0  0
   89.6910  -17.9360  -21.9860 C   0  0  0  0  0  0  0  0  0  0  0  0
   88.4690  -18.0310  -22.5990 C   0  0  0  0  0  0  0  0  0  0  0  0
   88.4180  -19.3100  -23.6990 S   0  0  0  0  0  0  0  0  0  0  0  0
   92.1160  -17.1910  -20.2960 C   0  0  0  0  0  0  0  0  0  0  0  0
   92.1470  -15.8450  -20.7220 C   0  0  0  0  0  0  0  0  0  0  0  0
   91.5430  -14.7690  -20.0380 C   0  0  0  0  0  0  0  0  0  0  0  0
   90.8270  -14.9130  -18.8350 C   0  0  0  0  0  0  0  0  0  0  0  0
   90.7930  -16.2450  -18.4000 C   0  0  0  0  0  0  0  0  0  0  0  0
   91.3980  -17.3190  -19.0850 C   0  0  0  0  0  0  0  0  0  0  0  0
   90.1570  -13.7370  -18.0630 C   0  0  0  0  0  0  0  0  0  0  0  0
   88.7280  -14.0790  -17.6080 C   0  0  0  0  0  0  0  0  0  0  0  0
   90.9640  -13.2590  -16.8070 C   0  0  0  0  0  0  0  0  0  0  0  0
   92.3670  -12.7550  -17.1070 N   0  0  0  0  0  0  0  0  0  0  0  0
   92.6590  -11.6360  -16.1610 C   0  0  0  0  0  0  0  0  0  0  0  0
   93.3810  -13.8330  -16.8420 C   0  0  0  0  0  0  0  0  0  0  0  0
   94.7730  -17.9950  -19.8170 O   0  0  0  0  0  0  0  0  0  0  0  0
   80.0730   18.2370   53.3420 C   0  0  0  0  0  0  0  0  0  0  0  0
   81.4670   18.1070   53.9600 C   0  0  0  0  0  0  0  0  0  0  0  0
   81.7200   17.1340   54.9200 C   0  0  0  0  0  0  0  0  0  0  0  0
   82.9940   16.9570   55.5260 C   0  0  0  0  0  0  0  0  0  0  0  0
   84.1240   17.7730   55.2010 C   0  0  0  0  0  0  0  0  0  0  0  0
   83.8840   18.8050   54.2220 C   0  0  0  0  0  0  0  0  0  0  0  0
   82.5760   18.9620   53.5990 C   0  0  0  0  0  0  0  0  0  0  0  0
   82.3730   19.9700   52.6260 N   0  0  0  0  0  0  0  0  0  0  0  0
   83.3740   20.8590   52.1950 C   0  0  0  0  0  0  0  0  0  0  0  0
   83.0790   21.7250   51.3170 O   0  0  0  0  0  0  0  0  0  0  0  0
   84.6780   20.7040   52.8020 C   0  0  0  0  0  0  0  0  0  0  0  0
   84.9520   19.7420   53.7600 C   0  0  0  0  0  0  0  0  0  0  0  0
   86.3570   19.9010   54.1210 C   0  0  0  0  0  0  0  0  0  0  0  0
   87.0200   20.9070   53.4670 C   0  0  0  0  0  0  0  0  0  0  0  0
   86.0130   21.7160   52.3810 S   0  0  0  0  0  0  0  0  0  0  0  0
   85.4810   17.5530   55.9100 C   0  0  0  0  0  0  0  0  0  0  0  0
   86.3500   16.4580   55.7140 C   0  0  0  0  0  0  0  0  0  0  0  0
   87.5760   16.2710   56.3890 C   0  0  0  0  0  0  0  0  0  0  0  0
   88.0820   17.1610   57.3550 C   0  0  0  0  0  0  0  0  0  0  0  0
   87.2220   18.2470   57.5660 C   0  0  0  0  0  0  0  0  0  0  0  0
   85.9980   18.4300   56.8920 C   0  0  0  0  0  0  0  0  0  0  0  0
   89.4300   16.9710   58.1110 C   0  0  0  0  0  0  0  0  0  0  0  0
   90.1110   18.3120   58.4310 C   0  0  0  0  0  0  0  0  0  0  0  0
   89.3020   16.1620   59.4470 C   0  0  0  0  0  0  0  0  0  0  0  0
   88.6260   14.8070   59.3070 N   0  0  0  0  0  0  0  0  0  0  0  0
   89.3760   13.8340   60.1590 C   0  0  0  0  0  0  0  0  0  0  0  0
   87.2190   14.8650   59.8310 C   0  0  0  0  0  0  0  0  0  0  0  0
   83.2060   15.9930   56.4690 O   0  0  0  0  0  0  0  0  0  0  0  0
  1  2  1  0  0  0  0
  2  3  1  0  0  0  0
  3  4  2  0  0  0  0
  4  5  1  0  0  0  0
  5  6  2  0  0  0  0
  2  7  2  0  0  0  0
  6  7  1  0  0  0  0
  7  8  1  0  0  0  0
  8  9  1  0  0  0  0
  9 10  2  0  0  0  0
  9 11  1  0  0  0  0
  6 12  1  0  0  0  0
 11 12  2  0  0  0  0
 12 13  1  0  0  0  0
 13 14  2  0  0  0  0
 11 15  1  0  0  0  0
 14 15  1  0  0  0  0
  5 16  1  0  0  0  0
 16 17  2  0  0  0  0
 17 18  1  0  0  0  0
 18 19  2  0  0  0  0
 19 20  1  0  0  0  0
 16 21  1  0  0  0  0
 20 21  2  0  0  0  0
 19 22  1  0  0  0  0
 22 23  1  0  0  0  0
 22 24  1  0  0  0  0
 24 25  1  0  0  0  0
 25 26  1  0  0  0  0
 25 27  1  0  0  0  0
  4 28  1  0  0  0  0
 29 30  1  0  0  0  0
 30 31  1  0  0  0  0
 31 32  2  0  0  0  0
 32 33  1  0  0  0  0
 33 34  2  0  0  0  0
 30 35  2  0  0  0  0
 34 35  1  0  0  0  0
 35 36  1  0  0  0  0
 36 37  1  0  0  0  0
 37 38  2  0  0  0  0
 37 39  1  0  0  0  0
 34 40  1  0  0  0  0
 39 40  2  0  0  0  0
 40 41  1  0  0  0  0
 41 42  2  0  0  0  0
 39 43  1  0  0  0  0
 42 43  1  0  0  0  0
 33 44  1  0  0  0  0
 44 45  2  0  0  0  0
 45 46  1  0  0  0  0
 46 47  2  0  0  0  0
 47 48  1  0  0  0  0
 44 49  1  0  0  0  0
 48 49  2  0  0  0  0
 47 50  1  0  0  0  0
 50 51  1  0  0  0  0
 50 52  1  0  0  0  0
 52 53  1  0  0  0  0
 53 54  1  0  0  0  0
 53 55  1  0  0  0  0
 32 56  1  0  0  0  0
 57 58  1  0  0  0  0
 58 59  1  0  0  0  0
 59 60  2  0  0  0  0
 60 61  1  0  0  0  0
 61 62  2  0  0  0  0
 58 63  2  0  0  0  0
 62 63  1  0  0  0  0
 63 64  1  0  0  0  0
 64 65  1  0  0  0  0
 65 66  2  0  0  0  0
 65 67  1  0  0  0  0
 62 68  1  0  0  0  0
 67 68  2  0  0  0  0
 68 69  1  0  0  0  0
 69 70  2  0  0  0  0
 67 71  1  0  0  0  0
 70 71  1  0  0  0  0
 61 72  1  0  0  0  0
 72 73  2  0  0  0  0
 73 74  1  0  0  0  0
 74 75  2  0  0  0  0
 75 76  1  0  0  0  0
 72 77  1  0  0  0  0
 76 77  2  0  0  0  0
 75 78  1  0  0  0  0
 78 79  1  0  0  0  0
 78 80  1  0  0  0  0
 80 81  1  0  0  0  0
 81 82  1  0  0  0  0
 81 83  1  0  0  0  0
 60 84  1  0  0  0  0
 85 86  1  0  0  0  0
 86 87  1  0  0  0  0
 87 88  2  0  0  0  0
 88 89  1  0  0  0  0
 89 90  2  0  0  0  0
 86 91  2  0  0  0  0
 90 91  1  0  0  0  0
 91 92  1  0  0  0  0
 92 93  1  0  0  0  0
 93 94  2  0  0  0  0
 93 95  1  0  0  0  0
 90 96  1  0  0  0  0
 95 96  2  0  0  0  0
 96 97  1  0  0  0  0
 97 98  2  0  0  0  0
 95 99  1  0  0  0  0
 98 99  1  0  0  0  0
 89100  1  0  0  0  0
100101  2  0  0  0  0
101102  1  0  0  0  0
102103  2  0  0  0  0
103104  1  0  0  0  0
100105  1  0  0  0  0
104105  2  0  0  0  0
103106  1  0  0  0  0
106107  1  0  0  0  0
106108  1  0  0  0  0
108109  1  0  0  0  0
109110  1  0  0  0  0
109111  1  0  0  0  0
 88112  1  0  0  0  0
113114  1  0  0  0  0
114115  1  0  0  0  0
115116  2  0  0  0  0
116117  1  0  0  0  0
117118  2  0  0  0  0
114119  2  0  0  0  0
118119  1  0  0  0  0
119120  1  0  0  0  0
120121  1  0  0  0  0
121122  2  0  0  0  0
121123  1  0  0  0  0
118124  1  0  0  0  0
123124  2  0  0  0  0
124125  1  0  0  0  0
125126  2  0  0  0  0
123127  1  0  0  0  0
126127  1  0  0  0  0
117128  1  0  0  0  0
128129  2  0  0  0  0
129130  1  0  0  0  0
130131  2  0  0  0  0
131132  1  0  0  0  0
128133  1  0  0  0  0
132133  2  0  0  0  0
131134  1  0  0  0  0
134135  1  0  0  0  0
134136  1  0  0  0  0
136137  1  0  0  0  0
137138  1  0  0  0  0
137139  1  0  0  0  0
116140  1  0  0  0  0
141142  1  0  0  0  0
142143  1  0  0  0  0
143144  2  0  0  0  0
144145  1  0  0  0  0
145146  2  0  0  0  0
142147  2  0  0  0  0
146147  1  0  0  0  0
147148  1  0  0  0  0
148149  1  0  0  0  0
149150  2  0  0  0  0
149151  1  0  0  0  0
146152  1  0  0  0  0
151152  2  0  0  0  0
152153  1  0  0  0  0
153154  2  0  0  0  0
151155  1  0  0  0  0
154155  1  0  0  0  0
145156  1  0  0  0  0
156157  2  0  0  0  0
157158  1  0  0  0  0
158159  2  0  0  0  0
159160  1  0  0  0  0
156161  1  0  0  0  0
160161  2  0  0  0  0
159162  1  0  0  0  0
162163  1  0  0  0  0
162164  1  0  0  0  0
164165  1  0  0  0  0
165166  1  0  0  0  0
165167  1  0  0  0  0
144168  1  0  0  0  0
M  END
$$$$
