7UKZ
  PyMOL3.1          3D                             0

 28 31  0  0  0  0  0  0  0  0999 V2000
   94.8620  -21.8160  -22.9940 C   0  0  0  0  0  0  0  0  0  0  0  0
   94.1200  -20.6510  -22.3390 C   0  0  0  0  0  0  0  0  0  0  0  0
   94.7560  -19.8560  -21.3910 C   0  0  0  0  0  0  0  0  0  0  0  0
   94.1240  -18.7590  -20.7430 C   0  0  0  0  0  0  0  0  0  0  0  0
   92.7710  -18.3850  -21.0220 C   0  0  0  0  0  0  0  0  0  0  0  0
   92.0860  -19.1930  -21.9990 C   0  0  0  0  0  0  0  0  0  0  0  0
   92.7500  -20.3120  -22.6510 C   0  0  0  0  0  0  0  0  0  0  0  0
   92.0520  -21.0860  -23.6090 N   0  0  0  0  0  0  0  0  0  0  0  0
   90.7180  -20.8470  -23.9890 C   0  0  0  0  0  0  0  0  0  0  0  0
   90.1910  -21.6050  -24.8590 O   0  0  0  0  0  0  0  0  0  0  0  0
   90.0520  -19.7380  -23.3430 C   0  0  0  0  0  0  0  0  0  0  0  0
   90.6730  -18.9360  -22.3990 C   0  0  0  0  0  0  0  0  0  0  0  0
   89.6910  -17.9360  -21.9860 C   0  0  0  0  0  0  0  0  0  0  0  0
   88.4690  -18.0310  -22.5990 C   0  0  0  0  0  0  0  0  0  0  0  0
   88.4180  -19.3100  -23.6990 S   0  0  0  0  0  0  0  0  0  0  0  0
   92.1160  -17.1910  -20.2960 C   0  0  0  0  0  0  0  0  0  0  0  0
   92.1470  -15.8450  -20.7220 C   0  0  0  0  0  0  0  0  0  0  0  0
   91.5430  -14.7690  -20.0380 C   0  0  0  0  0  0  0  0  0  0  0  0
   90.8270  -14.9130  -18.8350 C   0  0  0  0  0  0  0  0  0  0  0  0
   90.7930  -16.2450  -18.4000 C   0  0  0  0  0  0  0  0  0  0  0  0
   91.3980  -17.3190  -19.0850 C   0  0  0  0  0  0  0  0  0  0  0  0
   90.1570  -13.7370  -18.0630 C   0  0  0  0  0  0  0  0  0  0  0  0
   88.7280  -14.0790  -17.6080 C   0  0  0  0  0  0  0  0  0  0  0  0
   90.9640  -13.2590  -16.8070 C   0  0  0  0  0  0  0  0  0  0  0  0
   92.3670  -12.7550  -17.1070 N   0  0  0  0  0  0  0  0  0  0  0  0
   92.6590  -11.6360  -16.1610 C   0  0  0  0  0  0  0  0  0  0  0  0
   93.3810  -13.8330  -16.8420 C   0  0  0  0  0  0  0  0  0  0  0  0
   94.7730  -17.9950  -19.8170 O   0  0  0  0  0  0  0  0  0  0  0  0
  1  2  1  0  0  0  0
  2  3  1  0  0  0  0
  3  4  2  0  0  0  0
  4  5  1  0  0  0  0
  5  6  2  0  0  0  0
  2  7  2  0  0  0  0
  6  7  1  0  0  0  0
  7  8  1  0  0  0  0
  8  9  1  0  0  0  0
  9 10  2  0  0  0  0
  9 11  1  0  0  0  0
  6 12  1  0  0  0  0
 11 12  2  0  0  0  0
 12 13  1  0  0  0  0
 13 14  2  0  0  0  0
 11 15  1  0  0  0  0
 14 15  1  0  0  0  0
  5 16  1  0  0  0  0
 16 17  2  0  0  0  0
 17 18  1  0  0  0  0
 18 19  2  0  0  0  0
 19 20  1  0  0  0  0
 16 21  1  0  0  0  0
 20 21  2  0  0  0  0
 19 22  1  0  0  0  0
 22 23  1  0  0  0  0
 22 24  1  0  0  0  0
 24 25  1  0  0  0  0
 25 26  1  0  0  0  0
 25 27  1  0  0  0  0
  4 28  1  0  0  0  0
M  END
$$$$
