8V8U
  PyMOL3.1          3D                             0

 32 35  0  0  0  0  0  0  0  0999 V2000
   -7.6440   21.0670  -59.6960 C   0  0  0  0  0  0  0  0  0  0  0  0
   -6.7730   19.8630  -59.3060 C   0  0  0  0  0  0  0  0  0  0  0  0
   -7.4380   19.2170  -58.1590 N   0  0  0  0  0  0  0  0  0  0  0  0
   -6.8950   18.1540  -57.4190 C   0  0  0  0  0  0  0  0  0  0  0  0
   -5.7410   17.4940  -57.8670 C   0  0  0  0  0  0  0  0  0  0  0  0
   -5.2100   16.4480  -57.1350 C   0  0  0  0  0  0  0  0  0  0  0  0
   -5.8100   16.0330  -55.9500 C   0  0  0  0  0  0  0  0  0  0  0  0
   -6.9500   16.6730  -55.4980 C   0  0  0  0  0  0  0  0  0  0  0  0
   -7.5150   17.7380  -56.2130 C   0  0  0  0  0  0  0  0  0  0  0  0
   -8.7120   18.3480  -55.6600 C   0  0  0  0  0  0  0  0  0  0  0  0
   -9.6350   17.7010  -55.1880 O   0  0  0  0  0  0  0  0  0  0  0  0
   -8.8380   19.6870  -55.6460 O   0  5  0  0  0  0  0  0  0  0  0  0
   -6.7690   18.8930  -60.4930 C   0  0  0  0  0  0  0  0  0  0  0  0
   -7.8360   18.0610  -60.6680 C   0  0  0  0  0  0  0  0  0  0  0  0
   -7.8870   17.1390  -61.7400 C   0  0  0  0  0  0  0  0  0  0  0  0
   -6.8510   17.0640  -62.6220 C   0  0  0  0  0  0  0  0  0  0  0  0
   -5.7310   17.9000  -62.4730 N   0  0  0  0  0  0  0  0  0  0  0  0
   -4.6710   17.7850  -63.4090 C   0  0  0  0  0  0  0  0  0  0  0  0
   -4.8080   16.9480  -64.3230 O   0  0  0  0  0  0  0  0  0  0  0  0
   -3.5470   18.6380  -63.2550 C   0  0  0  0  0  0  0  0  0  0  0  0
   -3.5460   19.5330  -62.2050 C   0  0  0  0  0  0  0  0  0  0  0  0
   -4.5730   19.6050  -61.3120 N   0  0  0  0  0  0  0  0  0  0  0  0
   -5.6480   18.8370  -61.4110 C   0  0  0  0  0  0  0  0  0  0  0  0
   -2.5050   20.4300  -61.9520 N   0  0  0  0  0  0  0  0  0  0  0  0
   -1.0740   20.0210  -61.9750 C   0  0  0  0  0  0  0  0  0  0  0  0
   -0.4140   20.0360  -60.5910 C   0  0  0  0  0  0  0  0  0  0  0  0
   -0.5780   21.3720  -59.8660 C   0  0  0  0  0  0  0  0  0  0  0  0
   -2.0780   21.6530  -59.7810 C   0  0  0  0  0  0  0  0  0  0  0  0
   -2.7410   21.6750  -61.1640 C   0  0  0  0  0  0  0  0  0  0  0  0
   -2.5230   18.4650  -64.2460 C   0  0  0  0  0  0  0  0  0  0  0  0
   -1.7010   18.3370  -65.0290 N   0  0  0  0  0  0  0  0  0  0  0  0
   -9.1110   16.2580  -61.8690 C   0  0  0  0  0  0  0  0  0  0  0  0
  1  2  1  0  0  0  0
  2  3  1  0  0  0  0
  3  4  1  0  0  0  0
  4  5  2  0  0  0  0
  5  6  1  0  0  0  0
  6  7  2  0  0  0  0
  7  8  1  0  0  0  0
  4  9  1  0  0  0  0
  8  9  2  0  0  0  0
  9 10  1  0  0  0  0
 10 11  1  0  0  0  0
 10 12  2  0  0  0  0
  2 13  1  0  0  0  0
 13 14  2  0  0  0  0
 14 15  1  0  0  0  0
 15 16  2  0  0  0  0
 16 17  1  0  0  0  0
 17 18  1  0  0  0  0
 18 19  2  0  0  0  0
 18 20  1  0  0  0  0
 20 21  2  0  0  0  0
 21 22  1  0  0  0  0
 13 23  1  0  0  0  0
 17 23  1  0  0  0  0
 22 23  2  0  0  0  0
 21 24  1  0  0  0  0
 24 25  1  0  0  0  0
 25 26  1  0  0  0  0
 26 27  1  0  0  0  0
 27 28  1  0  0  0  0
 24 29  1  0  0  0  0
 28 29  1  0  0  0  0
 20 30  1  0  0  0  0
 30 31  3  0  0  0  0
 15 32  1  0  0  0  0
M  END
$$$$
