7XNK
  PyMOL3.1          3D                             0

 57 60  0  0  0  0  0  0  0  0999 V2000
  109.8560  109.3340  102.4020 N   0  0  0  0  0  0  0  0  0  0  0  0
  109.9400  108.7600  103.7990 C   0  0  0  0  0  0  0  0  0  0  0  0
  107.6180  107.9520  103.6910 C   0  0  0  0  0  0  0  0  0  0  0  0
  107.5100  108.4250  102.3550 C   0  0  0  0  0  0  0  0  0  0  0  0
  108.4080  109.5970  102.1010 C   0  0  0  0  0  0  0  0  0  0  0  0
  110.4170  107.0680  100.7820 C   0  0  0  0  0  0  0  0  0  0  0  0
  110.9930  106.0670  101.5140 C   0  0  0  0  0  0  0  0  0  0  0  0
  110.6660  104.7680  101.2440 C   0  0  0  0  0  0  0  0  0  0  0  0
  109.7800  104.4920  100.2460 C   0  0  0  0  0  0  0  0  0  0  0  0
  109.4350  103.0620   99.9580 C   0  0  0  0  0  0  0  0  0  0  0  0
  109.2070  105.4880   99.5110 C   0  0  0  0  0  0  0  0  0  0  0  0
  109.5310  106.7860   99.7820 C   0  0  0  0  0  0  0  0  0  0  0  0
  109.5360  112.3110  105.2500 C   0  0  0  0  0  0  0  0  0  0  0  0
  109.1240  114.5170  105.6630 C   0  0  0  0  0  0  0  0  0  0  0  0
  108.8760  115.9550  105.3200 C   0  0  0  0  0  0  0  0  0  0  0  0
  109.2870  116.4410  104.1290 C   0  0  0  0  0  0  0  0  0  0  0  0
  109.0480  117.7390  103.8070 C   0  0  0  0  0  0  0  0  0  0  0  0
  108.3900  118.5510  104.6820 C   0  0  0  0  0  0  0  0  0  0  0  0
  109.6510  109.8390  104.8230 C   0  0  0  0  0  0  0  0  0  0  0  0
  109.3130  109.5720  105.9050 O   0  0  0  0  0  0  0  0  0  0  0  0
  109.7940  111.1920  104.4140 N   0  0  0  0  0  0  0  0  0  0  0  0
  109.3620  113.5250  104.6580 N   0  0  0  0  0  0  0  0  0  0  0  0
  112.2240  108.9620  101.3800 O   0  0  0  0  0  0  0  0  0  0  0  0
  110.5720  109.5750   99.9380 O   0  0  0  0  0  0  0  0  0  0  0  0
  110.8120  108.7770  101.1250 S   0  0  0  0  0  0  0  0  0  0  0  0
  108.9620  107.6370  104.0340 C   0  0  0  0  0  0  0  0  0  0  0  0
  108.6500  120.4780  103.3340 C   0  0  0  0  0  0  0  0  0  0  0  0
  107.9720  118.0440  105.8650 C   0  0  0  0  0  0  0  0  0  0  0  0
  108.2100  116.7460  106.1850 C   0  0  0  0  0  0  0  0  0  0  0  0
  109.1240  113.9460  106.9330 C   0  0  0  0  0  0  0  0  0  0  0  0
  108.0960  119.8830  104.4460 O   0  0  0  0  0  0  0  0  0  0  0  0
  109.4080  112.3890  106.8490 S   0  0  0  0  0  0  0  0  0  0  0  0
  109.2190  106.9010  103.4910 H   0  0  0  0  0  0  0  0  0  0  0  0
  108.9880  107.3730  104.9540 H   0  0  0  0  0  0  0  0  0  0  0  0
  107.0980  107.1510  103.7660 H   0  0  0  0  0  0  0  0  0  0  0  0
  107.2820  108.6190  104.2850 H   0  0  0  0  0  0  0  0  0  0  0  0
  107.7560  107.7150  101.7680 H   0  0  0  0  0  0  0  0  0  0  0  0
  106.6040  108.6920  102.1930 H   0  0  0  0  0  0  0  0  0  0  0  0
  108.0910  110.3230  102.6360 H   0  0  0  0  0  0  0  0  0  0  0  0
  111.5860  106.2700  102.1890 H   0  0  0  0  0  0  0  0  0  0  0  0
  111.0360  104.0770  101.7260 H   0  0  0  0  0  0  0  0  0  0  0  0
  110.1870  102.5060  100.1830 H   0  0  0  0  0  0  0  0  0  0  0  0
  109.2180  102.9850   99.0240 H   0  0  0  0  0  0  0  0  0  0  0  0
  108.6770  102.8150  100.4950 H   0  0  0  0  0  0  0  0  0  0  0  0
  108.6100  105.2840   98.8380 H   0  0  0  0  0  0  0  0  0  0  0  0
  109.1540  107.4730   99.3000 H   0  0  0  0  0  0  0  0  0  0  0  0
  109.7330  115.8970  103.5530 H   0  0  0  0  0  0  0  0  0  0  0  0
  109.3390  118.0660  103.0070 H   0  0  0  0  0  0  0  0  0  0  0  0
  108.3020  120.0900  102.5350 H   0  0  0  0  0  0  0  0  0  0  0  0
  109.5980  120.3900  103.3530 H   0  0  0  0  0  0  0  0  0  0  0  0
  108.4390  121.4060  103.3330 H   0  0  0  0  0  0  0  0  0  0  0  0
  107.5270  118.5860  106.4500 H   0  0  0  0  0  0  0  0  0  0  0  0
  107.9330  116.4040  106.9870 H   0  0  0  0  0  0  0  0  0  0  0  0
  108.9870  114.4140  107.7040 H   0  0  0  0  0  0  0  0  0  0  0  0
  110.0270  111.3550  103.6230 H   0  0  0  0  0  0  0  0  0  0  0  0
  110.8260  108.4330  103.9280 H   0  0  0  0  0  0  0  0  0  0  0  0
  108.3520  109.8220  101.1690 H   0  0  0  0  0  0  0  0  0  0  0  0
  1  2  1  0  0  0  0
  3  4  1  0  0  0  0
  1  5  1  0  0  0  0
  4  5  1  0  0  0  0
  6  7  2  0  0  0  0
  7  8  1  0  0  0  0
  8  9  2  0  0  0  0
  9 10  1  0  0  0  0
  9 11  1  0  0  0  0
  6 12  1  0  0  0  0
 11 12  2  0  0  0  0
 14 15  1  0  0  0  0
 15 16  2  0  0  0  0
 16 17  1  0  0  0  0
 17 18  2  0  0  0  0
  2 19  1  0  0  0  0
 19 20  2  0  0  0  0
 13 21  1  0  0  0  0
 19 21  1  0  0  0  0
 13 22  2  0  0  0  0
 14 22  1  0  0  0  0
  1 25  1  0  0  0  0
  6 25  1  0  0  0  0
 23 25  2  0  0  0  0
 24 25  2  0  0  0  0
  2 26  1  0  0  0  0
  3 26  1  0  0  0  0
 18 28  1  0  0  0  0
 15 29  1  0  0  0  0
 28 29  2  0  0  0  0
 14 30  2  0  0  0  0
 18 31  1  0  0  0  0
 27 31  1  0  0  0  0
 13 32  1  0  0  0  0
 30 32  1  0  0  0  0
 26 33  1  0  0  0  0
 26 34  1  0  0  0  0
  3 35  1  0  0  0  0
  3 36  1  0  0  0  0
  4 37  1  0  0  0  0
  4 38  1  0  0  0  0
  5 39  1  0  0  0  0
  7 40  1  0  0  0  0
  8 41  1  0  0  0  0
 10 42  1  0  0  0  0
 10 43  1  0  0  0  0
 10 44  1  0  0  0  0
 11 45  1  0  0  0  0
 12 46  1  0  0  0  0
 16 47  1  0  0  0  0
 17 48  1  0  0  0  0
 27 49  1  0  0  0  0
 27 50  1  0  0  0  0
 27 51  1  0  0  0  0
 28 52  1  0  0  0  0
 29 53  1  0  0  0  0
 30 54  1  0  0  0  0
 21 55  1  0  0  0  0
  2 56  1  0  0  0  0
  5 57  1  0  0  0  0
M  END
$$$$
