7XNK
  PyMOL3.1          3D                             0

 57 60  0  0  0  0  0  0  0  0999 V2000
  134.0280  109.8980  102.4020 N   0  0  0  0  0  0  0  0  0  0  0  0
  134.6030  109.9780  103.7990 C   0  0  0  0  0  0  0  0  0  0  0  0
  135.3950  107.6500  103.6900 C   0  0  0  0  0  0  0  0  0  0  0  0
  134.9210  107.5460  102.3540 C   0  0  0  0  0  0  0  0  0  0  0  0
  133.7550  108.4520  102.1000 C   0  0  0  0  0  0  0  0  0  0  0  0
  136.2980  110.4440  100.7820 C   0  0  0  0  0  0  0  0  0  0  0  0
  137.3020  111.0130  101.5140 C   0  0  0  0  0  0  0  0  0  0  0  0
  138.5990  110.6770  101.2440 C   0  0  0  0  0  0  0  0  0  0  0  0
  138.8690  109.7900  100.2460 C   0  0  0  0  0  0  0  0  0  0  0  0
  140.2970  109.4350   99.9570 C   0  0  0  0  0  0  0  0  0  0  0  0
  137.8690  109.2230   99.5110 C   0  0  0  0  0  0  0  0  0  0  0  0
  136.5730  109.5560   99.7820 C   0  0  0  0  0  0  0  0  0  0  0  0
  131.0490  109.5970  105.2500 C   0  0  0  0  0  0  0  0  0  0  0  0
  128.8410  109.2000  105.6630 C   0  0  0  0  0  0  0  0  0  0  0  0
  127.4010  108.9610  105.3200 C   0  0  0  0  0  0  0  0  0  0  0  0
  126.9170  109.3760  104.1290 C   0  0  0  0  0  0  0  0  0  0  0  0
  125.6170  109.1460  103.8070 C   0  0  0  0  0  0  0  0  0  0  0  0
  124.8020  108.4930  104.6830 C   0  0  0  0  0  0  0  0  0  0  0  0
  133.5220  109.6960  104.8230 C   0  0  0  0  0  0  0  0  0  0  0  0
  133.7860  109.3550  105.9050 O   0  0  0  0  0  0  0  0  0  0  0  0
  132.1700  109.8470  104.4140 N   0  0  0  0  0  0  0  0  0  0  0  0
  129.8340  109.4310  104.6580 N   0  0  0  0  0  0  0  0  0  0  0  0
  134.4160  112.2630  101.3800 O   0  0  0  0  0  0  0  0  0  0  0  0
  133.7910  110.6160   99.9390 O   0  0  0  0  0  0  0  0  0  0  0  0
  134.5910  110.8500  101.1250 S   0  0  0  0  0  0  0  0  0  0  0  0
  135.7190  108.9920  104.0340 C   0  0  0  0  0  0  0  0  0  0  0  0
  122.8760  108.7660  103.3340 C   0  0  0  0  0  0  0  0  0  0  0  0
  125.3050  108.0710  105.8650 C   0  0  0  0  0  0  0  0  0  0  0  0
  126.6050  108.3000  106.1850 C   0  0  0  0  0  0  0  0  0  0  0  0
  129.4120  109.1950  106.9330 C   0  0  0  0  0  0  0  0  0  0  0  0
  123.4680  108.2080  104.4460 O   0  0  0  0  0  0  0  0  0  0  0  0
  130.9700  109.4690  106.8490 S   0  0  0  0  0  0  0  0  0  0  0  0
  136.4570  109.2440  103.4910 H   0  0  0  0  0  0  0  0  0  0  0  0
  135.9830  109.0140  104.9540 H   0  0  0  0  0  0  0  0  0  0  0  0
  136.1920  107.1250  103.7640 H   0  0  0  0  0  0  0  0  0  0  0  0
  134.7260  107.3180  104.2840 H   0  0  0  0  0  0  0  0  0  0  0  0
  135.6320  107.7850  101.7660 H   0  0  0  0  0  0  0  0  0  0  0  0
  134.6470  106.6420  102.1920 H   0  0  0  0  0  0  0  0  0  0  0  0
  133.0280  108.1390  102.6370 H   0  0  0  0  0  0  0  0  0  0  0  0
  137.1040  111.6070  102.1900 H   0  0  0  0  0  0  0  0  0  0  0  0
  139.2930  111.0430  101.7250 H   0  0  0  0  0  0  0  0  0  0  0  0
  140.8620  110.1640  100.2300 H   0  0  0  0  0  0  0  0  0  0  0  0
  140.3840  109.2680   99.0140 H   0  0  0  0  0  0  0  0  0  0  0  0
  140.5230  108.6450  100.4540 H   0  0  0  0  0  0  0  0  0  0  0  0
  138.0690  108.6260   98.8380 H   0  0  0  0  0  0  0  0  0  0  0  0
  135.8840  109.1830   99.2990 H   0  0  0  0  0  0  0  0  0  0  0  0
  127.4650  109.8160  103.5510 H   0  0  0  0  0  0  0  0  0  0  0  0
  125.2940  109.4360  103.0060 H   0  0  0  0  0  0  0  0  0  0  0  0
  123.2640  108.4050  102.5430 H   0  0  0  0  0  0  0  0  0  0  0  0
  122.9700  109.7130  103.3480 H   0  0  0  0  0  0  0  0  0  0  0  0
  121.9480  108.5560  103.3330 H   0  0  0  0  0  0  0  0  0  0  0  0
  124.7610  107.6290  106.4490 H   0  0  0  0  0  0  0  0  0  0  0  0
  126.9450  108.0200  106.9860 H   0  0  0  0  0  0  0  0  0  0  0  0
  128.9420  109.0610  107.7030 H   0  0  0  0  0  0  0  0  0  0  0  0
  132.0070  110.0810  103.6220 H   0  0  0  0  0  0  0  0  0  0  0  0
  134.9370  110.8610  103.9280 H   0  0  0  0  0  0  0  0  0  0  0  0
  133.5290  108.3990  101.1690 H   0  0  0  0  0  0  0  0  0  0  0  0
  1  2  1  0  0  0  0
  3  4  1  0  0  0  0
  1  5  1  0  0  0  0
  4  5  1  0  0  0  0
  6  7  2  0  0  0  0
  7  8  1  0  0  0  0
  8  9  2  0  0  0  0
  9 10  1  0  0  0  0
  9 11  1  0  0  0  0
  6 12  1  0  0  0  0
 11 12  2  0  0  0  0
 14 15  1  0  0  0  0
 15 16  2  0  0  0  0
 16 17  1  0  0  0  0
 17 18  2  0  0  0  0
  2 19  1  0  0  0  0
 19 20  2  0  0  0  0
 13 21  1  0  0  0  0
 19 21  1  0  0  0  0
 13 22  2  0  0  0  0
 14 22  1  0  0  0  0
  1 25  1  0  0  0  0
  6 25  1  0  0  0  0
 23 25  2  0  0  0  0
 24 25  2  0  0  0  0
  2 26  1  0  0  0  0
  3 26  1  0  0  0  0
 18 28  1  0  0  0  0
 15 29  1  0  0  0  0
 28 29  2  0  0  0  0
 14 30  2  0  0  0  0
 18 31  1  0  0  0  0
 27 31  1  0  0  0  0
 13 32  1  0  0  0  0
 30 32  1  0  0  0  0
 26 33  1  0  0  0  0
 26 34  1  0  0  0  0
  3 35  1  0  0  0  0
  3 36  1  0  0  0  0
  4 37  1  0  0  0  0
  4 38  1  0  0  0  0
  5 39  1  0  0  0  0
  7 40  1  0  0  0  0
  8 41  1  0  0  0  0
 10 42  1  0  0  0  0
 10 43  1  0  0  0  0
 10 44  1  0  0  0  0
 11 45  1  0  0  0  0
 12 46  1  0  0  0  0
 16 47  1  0  0  0  0
 17 48  1  0  0  0  0
 27 49  1  0  0  0  0
 27 50  1  0  0  0  0
 27 51  1  0  0  0  0
 28 52  1  0  0  0  0
 29 53  1  0  0  0  0
 30 54  1  0  0  0  0
 21 55  1  0  0  0  0
  2 56  1  0  0  0  0
  5 57  1  0  0  0  0
M  END
$$$$
