7XNK
  PyMOL3.1          3D                             0

 57 60  0  0  0  0  0  0  0  0999 V2000
  133.4680  134.0460  102.3940 N   0  0  0  0  0  0  0  0  0  0  0  0
  133.3880  134.6190  103.7910 C   0  0  0  0  0  0  0  0  0  0  0  0
  135.7150  135.4110  103.6840 C   0  0  0  0  0  0  0  0  0  0  0  0
  135.8200  134.9400  102.3480 C   0  0  0  0  0  0  0  0  0  0  0  0
  134.9140  133.7740  102.0910 C   0  0  0  0  0  0  0  0  0  0  0  0
  132.9220  136.3180  100.7760 C   0  0  0  0  0  0  0  0  0  0  0  0
  132.3520  137.3210  101.5100 C   0  0  0  0  0  0  0  0  0  0  0  0
  132.6880  138.6190  101.2420 C   0  0  0  0  0  0  0  0  0  0  0  0
  133.5750  138.8900  100.2440 C   0  0  0  0  0  0  0  0  0  0  0  0
  133.9290  140.3190   99.9580 C   0  0  0  0  0  0  0  0  0  0  0  0
  134.1420  137.8920   99.5080 C   0  0  0  0  0  0  0  0  0  0  0  0
  133.8100  136.5950   99.7770 C   0  0  0  0  0  0  0  0  0  0  0  0
  133.7700  131.0630  105.2370 C   0  0  0  0  0  0  0  0  0  0  0  0
  134.1670  128.8540  105.6460 C   0  0  0  0  0  0  0  0  0  0  0  0
  134.4060  127.4150  105.3010 C   0  0  0  0  0  0  0  0  0  0  0  0
  133.9920  126.9330  104.1100 C   0  0  0  0  0  0  0  0  0  0  0  0
  134.2230  125.6340  103.7860 C   0  0  0  0  0  0  0  0  0  0  0  0
  134.8760  124.8170  104.6610 C   0  0  0  0  0  0  0  0  0  0  0  0
  133.6700  133.5370  104.8130 C   0  0  0  0  0  0  0  0  0  0  0  0
  134.0100  133.7990  105.8960 O   0  0  0  0  0  0  0  0  0  0  0  0
  133.5190  132.1850  104.4020 N   0  0  0  0  0  0  0  0  0  0  0  0
  133.9360  129.8480  104.6430 N   0  0  0  0  0  0  0  0  0  0  0  0
  131.1030  134.4340  101.3710 O   0  0  0  0  0  0  0  0  0  0  0  0
  132.7510  133.8130   99.9290 O   0  0  0  0  0  0  0  0  0  0  0  0
  132.5160  134.6100  101.1170 S   0  0  0  0  0  0  0  0  0  0  0  0
  134.3730  135.7350  104.0280 C   0  0  0  0  0  0  0  0  0  0  0  0
  134.6030  122.8930  103.3090 C   0  0  0  0  0  0  0  0  0  0  0  0
  135.2970  125.3190  105.8440 C   0  0  0  0  0  0  0  0  0  0  0  0
  135.0670  126.6180  106.1660 C   0  0  0  0  0  0  0  0  0  0  0  0
  134.1710  129.4230  106.9170 C   0  0  0  0  0  0  0  0  0  0  0  0
  135.1620  123.4830  104.4220 O   0  0  0  0  0  0  0  0  0  0  0  0
  133.8970  130.9820  106.8360 S   0  0  0  0  0  0  0  0  0  0  0  0
  134.1200  136.4740  103.4870 H   0  0  0  0  0  0  0  0  0  0  0  0
  134.3500  135.9960  104.9490 H   0  0  0  0  0  0  0  0  0  0  0  0
  136.2410  136.2080  103.7610 H   0  0  0  0  0  0  0  0  0  0  0  0
  136.0460  134.7410  104.2760 H   0  0  0  0  0  0  0  0  0  0  0  0
  135.5820  135.6520  101.7590 H   0  0  0  0  0  0  0  0  0  0  0  0
  136.7240  134.6650  102.1870 H   0  0  0  0  0  0  0  0  0  0  0  0
  135.2270  133.0470  102.6280 H   0  0  0  0  0  0  0  0  0  0  0  0
  131.7580  137.1210  102.1850 H   0  0  0  0  0  0  0  0  0  0  0  0
  132.3220  139.3120  101.7240 H   0  0  0  0  0  0  0  0  0  0  0  0
  133.2180  140.8860  100.2720 H   0  0  0  0  0  0  0  0  0  0  0  0
  134.0540  140.4160   99.0100 H   0  0  0  0  0  0  0  0  0  0  0  0
  134.7440  140.5320  100.4200 H   0  0  0  0  0  0  0  0  0  0  0  0
  134.7400  138.0930   98.8360 H   0  0  0  0  0  0  0  0  0  0  0  0
  134.1830  135.9070   99.2940 H   0  0  0  0  0  0  0  0  0  0  0  0
  133.5510  127.4810  103.5330 H   0  0  0  0  0  0  0  0  0  0  0  0
  133.9320  125.3110  102.9850 H   0  0  0  0  0  0  0  0  0  0  0  0
  134.9650  123.2800  102.5170 H   0  0  0  0  0  0  0  0  0  0  0  0
  133.6570  122.9860  103.3240 H   0  0  0  0  0  0  0  0  0  0  0  0
  134.8130  121.9650  103.3090 H   0  0  0  0  0  0  0  0  0  0  0  0
  135.7390  124.7740  106.4270 H   0  0  0  0  0  0  0  0  0  0  0  0
  135.3470  126.9570  106.9670 H   0  0  0  0  0  0  0  0  0  0  0  0
  134.3050  128.9530  107.6870 H   0  0  0  0  0  0  0  0  0  0  0  0
  133.2850  132.0240  103.6100 H   0  0  0  0  0  0  0  0  0  0  0  0
  132.5040  134.9520  103.9210 H   0  0  0  0  0  0  0  0  0  0  0  0
  134.9680  133.5480  101.1600 H   0  0  0  0  0  0  0  0  0  0  0  0
  1  2  1  0  0  0  0
  3  4  1  0  0  0  0
  1  5  1  0  0  0  0
  4  5  1  0  0  0  0
  6  7  2  0  0  0  0
  7  8  1  0  0  0  0
  8  9  2  0  0  0  0
  9 10  1  0  0  0  0
  9 11  1  0  0  0  0
  6 12  1  0  0  0  0
 11 12  2  0  0  0  0
 14 15  1  0  0  0  0
 15 16  2  0  0  0  0
 16 17  1  0  0  0  0
 17 18  2  0  0  0  0
  2 19  1  0  0  0  0
 19 20  2  0  0  0  0
 13 21  1  0  0  0  0
 19 21  1  0  0  0  0
 13 22  2  0  0  0  0
 14 22  1  0  0  0  0
  1 25  1  0  0  0  0
  6 25  1  0  0  0  0
 23 25  2  0  0  0  0
 24 25  2  0  0  0  0
  2 26  1  0  0  0  0
  3 26  1  0  0  0  0
 18 28  1  0  0  0  0
 15 29  1  0  0  0  0
 28 29  2  0  0  0  0
 14 30  2  0  0  0  0
 18 31  1  0  0  0  0
 27 31  1  0  0  0  0
 13 32  1  0  0  0  0
 30 32  1  0  0  0  0
 26 33  1  0  0  0  0
 26 34  1  0  0  0  0
  3 35  1  0  0  0  0
  3 36  1  0  0  0  0
  4 37  1  0  0  0  0
  4 38  1  0  0  0  0
  5 39  1  0  0  0  0
  7 40  1  0  0  0  0
  8 41  1  0  0  0  0
 10 42  1  0  0  0  0
 10 43  1  0  0  0  0
 10 44  1  0  0  0  0
 11 45  1  0  0  0  0
 12 46  1  0  0  0  0
 16 47  1  0  0  0  0
 17 48  1  0  0  0  0
 27 49  1  0  0  0  0
 27 50  1  0  0  0  0
 27 51  1  0  0  0  0
 28 52  1  0  0  0  0
 29 53  1  0  0  0  0
 30 54  1  0  0  0  0
 21 55  1  0  0  0  0
  2 56  1  0  0  0  0
  5 57  1  0  0  0  0
M  END
$$$$
