9AVA
  PyMOL3.1          3D                             0

 37 40  0  0  0  0  0  0  0  0999 V2000
  -46.9600  -57.7670   -3.5200 N   0  0  0  0  0  0  0  0  0  0  0  0
  -48.4080  -57.6880   -3.2580 C   0  0  0  0  0  0  0  0  0  0  0  0
  -48.9170  -57.4510   -0.9470 O   0  0  0  0  0  0  0  0  0  0  0  0
  -43.3180  -51.0300   -3.5020 Cl  0  0  0  0  0  0  0  0  0  0  0  0
  -41.7330  -53.5640   -4.5920 Cl  0  0  0  0  0  0  0  0  0  0  0  0
  -48.8920  -59.1410   -3.1450 C   0  0  0  0  0  0  0  0  0  0  0  0
  -48.4270  -55.5340   -2.0310 N   0  0  0  0  0  0  0  0  0  0  0  0
  -47.4260  -52.6870   -0.5640 O   0  0  0  0  0  0  0  0  0  0  0  0
  -47.6150  -59.9850   -3.1340 C   0  0  0  0  0  0  0  0  0  0  0  0
  -46.4400  -54.6100    0.0760 N   0  0  0  0  0  0  0  0  0  0  0  0
  -46.6750  -59.1410   -3.9960 C   0  0  0  0  0  0  0  0  0  0  0  0
  -47.9240  -61.3370   -3.6180 N   0  0  0  0  0  0  0  0  0  0  0  0
  -46.3820  -56.6480   -4.3000 C   0  0  0  0  0  0  0  0  0  0  0  0
  -44.9130  -56.8500   -4.6790 C   0  0  0  0  0  0  0  0  0  0  0  0
  -44.3730  -55.9880   -5.8290 C   0  0  0  0  0  0  0  0  0  0  0  0
  -45.1450  -56.0880   -7.1250 C   0  0  0  0  0  0  0  0  0  0  0  0
  -45.4060  -57.3270   -7.7110 C   0  0  0  0  0  0  0  0  0  0  0  0
  -46.1420  -57.4150   -8.8830 C   0  0  0  0  0  0  0  0  0  0  0  0
  -46.6140  -56.2670   -9.4980 C   0  0  0  0  0  0  0  0  0  0  0  0
  -46.3450  -55.0290   -8.9340 C   0  0  0  0  0  0  0  0  0  0  0  0
  -45.6180  -54.9400   -7.7570 C   0  0  0  0  0  0  0  0  0  0  0  0
  -46.5490  -55.2340   -3.6570 C   0  0  0  0  0  0  0  0  0  0  0  0
  -47.9690  -54.8480   -3.2500 C   0  0  0  0  0  0  0  0  0  0  0  0
  -48.6180  -56.8770   -1.9760 C   0  0  0  0  0  0  0  0  0  0  0  0
  -48.6920  -54.7270   -0.8420 C   0  0  0  0  0  0  0  0  0  0  0  0
  -49.9390  -53.8580   -1.0560 C   0  0  0  0  0  0  0  0  0  0  0  0
  -51.2810  -54.5900   -0.9720 C   0  0  0  0  0  0  0  0  0  0  0  0
  -52.3950  -53.7280   -1.5230 C   0  0  0  0  0  0  0  0  0  0  0  0
  -51.6210  -55.0080    0.4640 C   0  0  0  0  0  0  0  0  0  0  0  0
  -47.4580  -53.9100   -0.4310 C   0  0  0  0  0  0  0  0  0  0  0  0
  -45.1430  -54.0100    0.3580 C   0  0  0  0  0  0  0  0  0  0  0  0
  -44.2890  -53.8800   -0.8790 C   0  0  0  0  0  0  0  0  0  0  0  0
  -43.5460  -54.9610   -1.3380 C   0  0  0  0  0  0  0  0  0  0  0  0
  -42.7800  -54.8640   -2.4860 C   0  0  0  0  0  0  0  0  0  0  0  0
  -42.7330  -53.6710   -3.1820 C   0  0  0  0  0  0  0  0  0  0  0  0
  -43.4580  -52.5750   -2.7280 C   0  0  0  0  0  0  0  0  0  0  0  0
  -44.2410  -52.6840   -1.5920 C   0  0  0  0  0  0  0  0  0  0  0  0
  1  2  1  0  0  0  0
  2  6  1  0  0  0  0
  6  9  1  0  0  0  0
  1 11  1  0  0  0  0
  9 11  1  0  0  0  0
  9 12  1  0  0  0  0
  1 13  1  0  0  0  0
 13 14  1  0  0  0  0
 14 15  1  0  0  0  0
 15 16  1  0  0  0  0
 16 17  2  0  0  0  0
 17 18  1  0  0  0  0
 18 19  2  0  0  0  0
 19 20  1  0  0  0  0
 16 21  1  0  0  0  0
 20 21  2  0  0  0  0
 13 22  1  0  0  0  0
  7 23  1  0  0  0  0
 22 23  1  0  0  0  0
  2 24  1  0  0  0  0
  3 24  2  0  0  0  0
  7 24  1  0  0  0  0
  7 25  1  0  0  0  0
 25 26  1  0  0  0  0
 26 27  1  0  0  0  0
 27 28  1  0  0  0  0
 27 29  1  0  0  0  0
  8 30  2  0  0  0  0
 10 30  1  0  0  0  0
 25 30  1  0  0  0  0
 10 31  1  0  0  0  0
 31 32  1  0  0  0  0
 32 33  2  0  0  0  0
 33 34  1  0  0  0  0
  5 35  1  0  0  0  0
 34 35  2  0  0  0  0
  4 36  1  0  0  0  0
 35 36  1  0  0  0  0
 32 37  1  0  0  0  0
 36 37  2  0  0  0  0
M  END
$$$$
