9AVA
  PyMOL3.1          3D                             0

 37 40  0  0  0  0  0  0  0  0999 V2000
   22.7640  -21.4640   25.8790 N   0  0  0  0  0  0  0  0  0  0  0  0
   24.2170  -21.2390   25.7470 C   0  0  0  0  0  0  0  0  0  0  0  0
   24.8590  -19.6710   24.0420 O   0  0  0  0  0  0  0  0  0  0  0  0
   19.0760  -16.2340   30.0340 Cl  0  0  0  0  0  0  0  0  0  0  0  0
   17.5340  -18.8930   29.1870 Cl  0  0  0  0  0  0  0  0  0  0  0  0
   24.7140  -22.3620   24.8210 C   0  0  0  0  0  0  0  0  0  0  0  0
   24.1820  -18.7880   26.0000 N   0  0  0  0  0  0  0  0  0  0  0  0
   23.3690  -15.6080   26.6490 O   0  0  0  0  0  0  0  0  0  0  0  0
   23.4260  -22.9360   24.2210 C   0  0  0  0  0  0  0  0  0  0  0  0
   22.2410  -16.6910   25.0170 N   0  0  0  0  0  0  0  0  0  0  0  0
   22.4800  -22.8390   25.4150 C   0  0  0  0  0  0  0  0  0  0  0  0
   23.6400  -24.2660   23.6410 N   0  0  0  0  0  0  0  0  0  0  0  0
   22.0840  -21.0200   27.1170 C   0  0  0  0  0  0  0  0  0  0  0  0
   20.6010  -21.3820   27.2460 C   0  0  0  0  0  0  0  0  0  0  0  0
   20.0440  -21.4980   28.6790 C   0  0  0  0  0  0  0  0  0  0  0  0
   20.8410  -22.4070   29.5870 C   0  0  0  0  0  0  0  0  0  0  0  0
   21.1490  -23.7120   29.2030 C   0  0  0  0  0  0  0  0  0  0  0  0
   21.9770  -24.5030   29.9860 C   0  0  0  0  0  0  0  0  0  0  0  0
   22.4910  -24.0120   31.1750 C   0  0  0  0  0  0  0  0  0  0  0  0
   22.1560  -22.7350   31.5880 C   0  0  0  0  0  0  0  0  0  0  0  0
   21.3440  -21.9350   30.7980 C   0  0  0  0  0  0  0  0  0  0  0  0
   22.2180  -19.5030   27.3600 C   0  0  0  0  0  0  0  0  0  0  0  0
   23.6410  -18.9580   27.3560 C   0  0  0  0  0  0  0  0  0  0  0  0
   24.4500  -19.8300   25.1800 C   0  0  0  0  0  0  0  0  0  0  0  0
   24.4860  -17.4360   25.5510 C   0  0  0  0  0  0  0  0  0  0  0  0
   25.7860  -16.9820   26.2250 C   0  0  0  0  0  0  0  0  0  0  0  0
   26.7120  -16.1280   25.3680 C   0  0  0  0  0  0  0  0  0  0  0  0
   27.7750  -15.4910   26.2460 C   0  0  0  0  0  0  0  0  0  0  0  0
   27.3660  -16.9390   24.2550 C   0  0  0  0  0  0  0  0  0  0  0  0
   23.3160  -16.4780   25.7800 C   0  0  0  0  0  0  0  0  0  0  0  0
   20.9890  -15.9720   25.2040 C   0  0  0  0  0  0  0  0  0  0  0  0
   20.0680  -16.6510   26.1880 C   0  0  0  0  0  0  0  0  0  0  0  0
   19.3270  -17.7650   25.8140 C   0  0  0  0  0  0  0  0  0  0  0  0
   18.5280  -18.4300   26.7290 C   0  0  0  0  0  0  0  0  0  0  0  0
   18.4620  -17.9860   28.0390 C   0  0  0  0  0  0  0  0  0  0  0  0
   19.1790  -16.8580   28.4200 C   0  0  0  0  0  0  0  0  0  0  0  0
   19.9770  -16.1970   27.5020 C   0  0  0  0  0  0  0  0  0  0  0  0
  1  2  1  0  0  0  0
  2  6  1  0  0  0  0
  6  9  1  0  0  0  0
  1 11  1  0  0  0  0
  9 11  1  0  0  0  0
  9 12  1  0  0  0  0
  1 13  1  0  0  0  0
 13 14  1  0  0  0  0
 14 15  1  0  0  0  0
 15 16  1  0  0  0  0
 16 17  2  0  0  0  0
 17 18  1  0  0  0  0
 18 19  2  0  0  0  0
 19 20  1  0  0  0  0
 16 21  1  0  0  0  0
 20 21  2  0  0  0  0
 13 22  1  0  0  0  0
  7 23  1  0  0  0  0
 22 23  1  0  0  0  0
  2 24  1  0  0  0  0
  3 24  2  0  0  0  0
  7 24  1  0  0  0  0
  7 25  1  0  0  0  0
 25 26  1  0  0  0  0
 26 27  1  0  0  0  0
 27 28  1  0  0  0  0
 27 29  1  0  0  0  0
  8 30  2  0  0  0  0
 10 30  1  0  0  0  0
 25 30  1  0  0  0  0
 10 31  1  0  0  0  0
 31 32  1  0  0  0  0
 32 33  2  0  0  0  0
 33 34  1  0  0  0  0
  5 35  1  0  0  0  0
 34 35  2  0  0  0  0
  4 36  1  0  0  0  0
 35 36  1  0  0  0  0
 32 37  1  0  0  0  0
 36 37  2  0  0  0  0
M  END
$$$$
