9AVA
  PyMOL3.1          3D                             0

 37 40  0  0  0  0  0  0  0  0999 V2000
  -92.2780  -42.0750  -10.3310 N   0  0  0  0  0  0  0  0  0  0  0  0
  -93.7410  -42.2470  -10.3680 C   0  0  0  0  0  0  0  0  0  0  0  0
  -94.4280  -44.2540  -11.5250 O   0  0  0  0  0  0  0  0  0  0  0  0
  -88.6840  -46.3090   -4.3950 Cl  0  0  0  0  0  0  0  0  0  0  0  0
  -87.3430  -43.8370   -5.9860 Cl  0  0  0  0  0  0  0  0  0  0  0  0
  -94.2310  -41.4100  -11.5570 C   0  0  0  0  0  0  0  0  0  0  0  0
  -93.8490  -44.4780   -9.3490 N   0  0  0  0  0  0  0  0  0  0  0  0
  -93.2560  -47.0920   -7.4770 O   0  0  0  0  0  0  0  0  0  0  0  0
  -92.9480  -41.0230  -12.3110 C   0  0  0  0  0  0  0  0  0  0  0  0
  -92.0800  -47.0860   -9.4040 N   0  0  0  0  0  0  0  0  0  0  0  0
  -91.9250  -40.9210  -11.1850 C   0  0  0  0  0  0  0  0  0  0  0  0
  -93.1240  -39.8010  -13.1100 N   0  0  0  0  0  0  0  0  0  0  0  0
  -91.6600  -42.0940   -8.9860 C   0  0  0  0  0  0  0  0  0  0  0  0
  -90.1620  -41.7790   -8.9430 C   0  0  0  0  0  0  0  0  0  0  0  0
  -89.6270  -41.1950   -7.6290 C   0  0  0  0  0  0  0  0  0  0  0  0
  -90.5070  -40.1270   -7.0150 C   0  0  0  0  0  0  0  0  0  0  0  0
  -90.7460  -38.9210   -7.6820 C   0  0  0  0  0  0  0  0  0  0  0  0
  -91.5250  -37.9320   -7.0990 C   0  0  0  0  0  0  0  0  0  0  0  0
  -92.0700  -38.1250   -5.8420 C   0  0  0  0  0  0  0  0  0  0  0  0
  -91.8300  -39.3130   -5.1660 C   0  0  0  0  0  0  0  0  0  0  0  0
  -91.0620  -40.3090   -5.7500 C   0  0  0  0  0  0  0  0  0  0  0  0
  -91.8910  -43.4290   -8.2280 C   0  0  0  0  0  0  0  0  0  0  0  0
  -93.3420  -43.8850   -8.1030 C   0  0  0  0  0  0  0  0  0  0  0  0
  -94.0520  -43.7500  -10.4750 C   0  0  0  0  0  0  0  0  0  0  0  0
  -94.1900  -45.8980   -9.3470 C   0  0  0  0  0  0  0  0  0  0  0  0
  -95.5820  -46.0820   -8.7300 C   0  0  0  0  0  0  0  0  0  0  0  0
  -96.2490  -47.4270   -9.0120 C   0  0  0  0  0  0  0  0  0  0  0  0
  -97.5030  -47.5760   -8.1830 C   0  0  0  0  0  0  0  0  0  0  0  0
  -96.5880  -47.5570  -10.4890 C   0  0  0  0  0  0  0  0  0  0  0  0
  -93.1300  -46.7540   -8.6530 C   0  0  0  0  0  0  0  0  0  0  0  0
  -90.9070  -47.7590   -8.8630 C   0  0  0  0  0  0  0  0  0  0  0  0
  -89.9710  -46.8230   -8.1390 C   0  0  0  0  0  0  0  0  0  0  0  0
  -89.2330  -45.8740   -8.8380 C   0  0  0  0  0  0  0  0  0  0  0  0
  -88.4010  -44.9880   -8.1760 C   0  0  0  0  0  0  0  0  0  0  0  0
  -88.2840  -45.0500   -6.7960 C   0  0  0  0  0  0  0  0  0  0  0  0
  -88.9800  -46.0310   -6.0870 C   0  0  0  0  0  0  0  0  0  0  0  0
  -89.8380  -46.8890   -6.7540 C   0  0  0  0  0  0  0  0  0  0  0  0
  1  2  1  0  0  0  0
  2  6  1  0  0  0  0
  6  9  1  0  0  0  0
  1 11  1  0  0  0  0
  9 11  1  0  0  0  0
  9 12  1  0  0  0  0
  1 13  1  0  0  0  0
 13 14  1  0  0  0  0
 14 15  1  0  0  0  0
 15 16  1  0  0  0  0
 16 17  2  0  0  0  0
 17 18  1  0  0  0  0
 18 19  2  0  0  0  0
 19 20  1  0  0  0  0
 16 21  1  0  0  0  0
 20 21  2  0  0  0  0
 13 22  1  0  0  0  0
  7 23  1  0  0  0  0
 22 23  1  0  0  0  0
  2 24  1  0  0  0  0
  3 24  2  0  0  0  0
  7 24  1  0  0  0  0
  7 25  1  0  0  0  0
 25 26  1  0  0  0  0
 26 27  1  0  0  0  0
 27 28  1  0  0  0  0
 27 29  1  0  0  0  0
  8 30  2  0  0  0  0
 10 30  1  0  0  0  0
 25 30  1  0  0  0  0
 10 31  1  0  0  0  0
 31 32  1  0  0  0  0
 32 33  2  0  0  0  0
 33 34  1  0  0  0  0
  5 35  1  0  0  0  0
 34 35  2  0  0  0  0
  4 36  1  0  0  0  0
 35 36  1  0  0  0  0
 32 37  1  0  0  0  0
 36 37  2  0  0  0  0
M  END
$$$$
