9AVA
  PyMOL3.1          3D                             0

 37 40  0  0  0  0  0  0  0  0999 V2000
  -23.2150  -87.0580    0.6020 N   0  0  0  0  0  0  0  0  0  0  0  0
  -21.7630  -87.1460    0.8440 C   0  0  0  0  0  0  0  0  0  0  0  0
  -21.1020  -86.9730    3.1450 O   0  0  0  0  0  0  0  0  0  0  0  0
  -27.0850  -94.3560    1.7040 Cl  0  0  0  0  0  0  0  0  0  0  0  0
  -28.3250  -91.8990    0.0070 Cl  0  0  0  0  0  0  0  0  0  0  0  0
  -21.2150  -85.7290    0.6250 C   0  0  0  0  0  0  0  0  0  0  0  0
  -21.7700  -89.0110    2.4590 N   0  0  0  0  0  0  0  0  0  0  0  0
  -22.4400  -91.7950    4.1080 O   0  0  0  0  0  0  0  0  0  0  0  0
  -22.4590  -84.8570    0.4100 C   0  0  0  0  0  0  0  0  0  0  0  0
  -23.7950  -90.0400    4.5780 N   0  0  0  0  0  0  0  0  0  0  0  0
  -23.4270  -85.8490   -0.2200 C   0  0  0  0  0  0  0  0  0  0  0  0
  -22.1410  -83.6670   -0.3910 N   0  0  0  0  0  0  0  0  0  0  0  0
  -23.8040  -88.2890    0.0310 C   0  0  0  0  0  0  0  0  0  0  0  0
  -25.2490  -88.1760   -0.4630 C   0  0  0  0  0  0  0  0  0  0  0  0
  -25.7310  -89.2510   -1.4510 C   0  0  0  0  0  0  0  0  0  0  0  0
  -24.8850  -89.4080   -2.6930 C   0  0  0  0  0  0  0  0  0  0  0  0
  -24.6080  -88.3170   -3.5160 C   0  0  0  0  0  0  0  0  0  0  0  0
  -23.7680  -88.4520   -4.6120 C   0  0  0  0  0  0  0  0  0  0  0  0
  -23.2060  -89.6830   -4.9120 C   0  0  0  0  0  0  0  0  0  0  0  0
  -23.4980  -90.7830   -4.1190 C   0  0  0  0  0  0  0  0  0  0  0  0
  -24.3270  -90.6460   -3.0170 C   0  0  0  0  0  0  0  0  0  0  0  0
  -23.6830  -89.5240    0.9630 C   0  0  0  0  0  0  0  0  0  0  0  0
  -22.2660  -89.8930    1.3940 C   0  0  0  0  0  0  0  0  0  0  0  0
  -21.5160  -87.6960    2.2570 C   0  0  0  0  0  0  0  0  0  0  0  0
  -21.5410  -89.5840    3.7830 C   0  0  0  0  0  0  0  0  0  0  0  0
  -20.1290  -90.1880    3.8410 C   0  0  0  0  0  0  0  0  0  0  0  0
  -19.5660  -90.4140    5.2430 C   0  0  0  0  0  0  0  0  0  0  0  0
  -18.6160  -91.5990    5.2590 C   0  0  0  0  0  0  0  0  0  0  0  0
  -18.8420  -89.1750    5.7470 C   0  0  0  0  0  0  0  0  0  0  0  0
  -22.6360  -90.5780    4.1790 C   0  0  0  0  0  0  0  0  0  0  0  0
  -24.9620  -90.8470    4.9140 C   0  0  0  0  0  0  0  0  0  0  0  0
  -25.8440  -91.1380    3.7250 C   0  0  0  0  0  0  0  0  0  0  0  0
  -26.4760  -90.1030    3.0480 C   0  0  0  0  0  0  0  0  0  0  0  0
  -27.2290  -90.3460    1.9120 C   0  0  0  0  0  0  0  0  0  0  0  0
  -27.3870  -91.6410    1.4490 C   0  0  0  0  0  0  0  0  0  0  0  0
  -26.7870  -92.6980    2.1390 C   0  0  0  0  0  0  0  0  0  0  0  0
  -26.0090  -92.4420    3.2600 C   0  0  0  0  0  0  0  0  0  0  0  0
  1  2  1  0  0  0  0
  2  6  1  0  0  0  0
  6  9  1  0  0  0  0
  1 11  1  0  0  0  0
  9 11  1  0  0  0  0
  9 12  1  0  0  0  0
  1 13  1  0  0  0  0
 13 14  1  0  0  0  0
 14 15  1  0  0  0  0
 15 16  1  0  0  0  0
 16 17  2  0  0  0  0
 17 18  1  0  0  0  0
 18 19  2  0  0  0  0
 19 20  1  0  0  0  0
 16 21  1  0  0  0  0
 20 21  2  0  0  0  0
 13 22  1  0  0  0  0
  7 23  1  0  0  0  0
 22 23  1  0  0  0  0
  2 24  1  0  0  0  0
  3 24  2  0  0  0  0
  7 24  1  0  0  0  0
  7 25  1  0  0  0  0
 25 26  1  0  0  0  0
 26 27  1  0  0  0  0
 27 28  1  0  0  0  0
 27 29  1  0  0  0  0
  8 30  2  0  0  0  0
 10 30  1  0  0  0  0
 25 30  1  0  0  0  0
 10 31  1  0  0  0  0
 31 32  1  0  0  0  0
 32 33  2  0  0  0  0
 33 34  1  0  0  0  0
  5 35  1  0  0  0  0
 34 35  2  0  0  0  0
  4 36  1  0  0  0  0
 35 36  1  0  0  0  0
 32 37  1  0  0  0  0
 36 37  2  0  0  0  0
M  END
$$$$
