9AVA
  PyMOL3.1          3D                             0

 37 40  0  0  0  0  0  0  0  0999 V2000
  -70.5420  -34.7220   32.7670 N   0  0  0  0  0  0  0  0  0  0  0  0
  -72.0060  -34.8290   32.8990 C   0  0  0  0  0  0  0  0  0  0  0  0
  -72.8020  -36.9870   33.5860 O   0  0  0  0  0  0  0  0  0  0  0  0
  -67.1010  -33.2090   39.3190 Cl  0  0  0  0  0  0  0  0  0  0  0  0
  -65.4280  -33.0570   36.6050 Cl  0  0  0  0  0  0  0  0  0  0  0  0
  -72.5250  -35.1400   31.4840 C   0  0  0  0  0  0  0  0  0  0  0  0
  -72.0780  -35.6300   35.2420 N   0  0  0  0  0  0  0  0  0  0  0  0
  -71.3060  -36.1430   38.3520 O   0  0  0  0  0  0  0  0  0  0  0  0
  -71.2600  -35.3690   30.6480 C   0  0  0  0  0  0  0  0  0  0  0  0
  -70.3600  -37.6760   36.9890 N   0  0  0  0  0  0  0  0  0  0  0  0
  -70.2620  -34.4500   31.3430 C   0  0  0  0  0  0  0  0  0  0  0  0
  -71.4840  -35.1150   29.2160 N   0  0  0  0  0  0  0  0  0  0  0  0
  -69.8840  -33.7900   33.7080 C   0  0  0  0  0  0  0  0  0  0  0  0
  -68.4040  -33.5120   33.4400 C   0  0  0  0  0  0  0  0  0  0  0  0
  -67.8320  -32.2100   34.0210 C   0  0  0  0  0  0  0  0  0  0  0  0
  -68.6750  -30.9870   33.7450 C   0  0  0  0  0  0  0  0  0  0  0  0
  -68.9060  -30.5570   32.4420 C   0  0  0  0  0  0  0  0  0  0  0  0
  -69.7010  -29.4490   32.1930 C   0  0  0  0  0  0  0  0  0  0  0  0
  -70.2620  -28.7440   33.2430 C   0  0  0  0  0  0  0  0  0  0  0  0
  -70.0310  -29.1550   34.5420 C   0  0  0  0  0  0  0  0  0  0  0  0
  -69.2470  -30.2710   34.7930 C   0  0  0  0  0  0  0  0  0  0  0  0
  -70.0610  -34.1780   35.2010 C   0  0  0  0  0  0  0  0  0  0  0  0
  -71.5010  -34.3490   35.6750 C   0  0  0  0  0  0  0  0  0  0  0  0
  -72.3340  -35.9150   33.9390 C   0  0  0  0  0  0  0  0  0  0  0  0
  -72.4200  -36.6130   36.2670 C   0  0  0  0  0  0  0  0  0  0  0  0
  -73.7680  -36.2520   36.9020 C   0  0  0  0  0  0  0  0  0  0  0  0
  -75.0000  -36.8010   36.1760 C   0  0  0  0  0  0  0  0  0  0  0  0
  -76.2810  -36.1930   36.7300 C   0  0  0  0  0  0  0  0  0  0  0  0
  -75.0680  -38.3220   36.2490 C   0  0  0  0  0  0  0  0  0  0  0  0
  -71.3090  -36.7880   37.3040 C   0  0  0  0  0  0  0  0  0  0  0  0
  -69.0810  -37.7370   37.6840 C   0  0  0  0  0  0  0  0  0  0  0  0
  -68.2010  -36.5430   37.4080 C   0  0  0  0  0  0  0  0  0  0  0  0
  -67.4690  -36.4600   36.2310 C   0  0  0  0  0  0  0  0  0  0  0  0
  -66.6130  -35.3970   35.9940 C   0  0  0  0  0  0  0  0  0  0  0  0
  -66.4880  -34.3900   36.9360 C   0  0  0  0  0  0  0  0  0  0  0  0
  -67.2230  -34.4540   38.1170 C   0  0  0  0  0  0  0  0  0  0  0  0
  -68.0730  -35.5230   38.3490 C   0  0  0  0  0  0  0  0  0  0  0  0
  1  2  1  0  0  0  0
  2  6  1  0  0  0  0
  6  9  1  0  0  0  0
  1 11  1  0  0  0  0
  9 11  1  0  0  0  0
  9 12  1  0  0  0  0
  1 13  1  0  0  0  0
 13 14  1  0  0  0  0
 14 15  1  0  0  0  0
 15 16  1  0  0  0  0
 16 17  2  0  0  0  0
 17 18  1  0  0  0  0
 18 19  2  0  0  0  0
 19 20  1  0  0  0  0
 16 21  1  0  0  0  0
 20 21  2  0  0  0  0
 13 22  1  0  0  0  0
  7 23  1  0  0  0  0
 22 23  1  0  0  0  0
  2 24  1  0  0  0  0
  3 24  2  0  0  0  0
  7 24  1  0  0  0  0
  7 25  1  0  0  0  0
 25 26  1  0  0  0  0
 26 27  1  0  0  0  0
 27 28  1  0  0  0  0
 27 29  1  0  0  0  0
  8 30  2  0  0  0  0
 10 30  1  0  0  0  0
 25 30  1  0  0  0  0
 10 31  1  0  0  0  0
 31 32  1  0  0  0  0
 32 33  2  0  0  0  0
 33 34  1  0  0  0  0
  5 35  1  0  0  0  0
 34 35  2  0  0  0  0
  4 36  1  0  0  0  0
 35 36  1  0  0  0  0
 32 37  1  0  0  0  0
 36 37  2  0  0  0  0
M  END
$$$$
