7WRE
  PyMOL3.1          3D                             0

 92100  0  0  0  0  0  0  0  0999 V2000
  125.9250   92.4680  162.6250 C   0  0  0  0  0  0  0  0  0  0  0  0
  127.3440   92.3680  162.9550 C   0  0  0  0  0  0  0  0  0  0  0  0
  127.8450   91.0350  163.2070 C   0  0  0  0  0  0  0  0  0  0  0  0
  127.5030   90.0270  162.2680 N   0  0  0  0  0  0  0  0  0  0  0  0
  126.3000   90.2700  161.4450 C   0  0  0  0  0  0  0  0  0  0  0  0
  125.9780   89.4690  160.6440 O   0  0  0  0  0  0  0  0  0  0  0  0
  125.4820   91.4990  161.6080 N   0  0  0  0  0  0  0  0  0  0  0  0
  124.3070   91.8050  160.8560 C   0  0  0  0  0  0  0  0  0  0  0  0
  123.0800   91.6510  161.4390 C   0  0  0  0  0  0  0  0  0  0  0  0
  121.9580   91.9800  160.7140 C   0  0  0  0  0  0  0  0  0  0  0  0
  122.0660   92.4590  159.4270 C   0  0  0  0  0  0  0  0  0  0  0  0
  123.3060   92.6240  158.8550 C   0  0  0  0  0  0  0  0  0  0  0  0
  124.4250   92.2970  159.5800 C   0  0  0  0  0  0  0  0  0  0  0  0
  125.6910   92.4610  159.0210 O   0  0  0  0  0  0  0  0  0  0  0  0
  128.9090   90.8990  164.2700 C   0  0  0  0  0  0  0  0  0  0  0  0
  129.4640   92.0570  164.7470 C   0  0  0  0  0  0  0  0  0  0  0  0
  130.4270   92.0060  165.7260 C   0  0  0  0  0  0  0  0  0  0  0  0
  130.8320   90.7860  166.2360 C   0  0  0  0  0  0  0  0  0  0  0  0
  130.2590   89.6210  165.7570 C   0  0  0  0  0  0  0  0  0  0  0  0
  129.2980   89.6830  164.7660 C   0  0  0  0  0  0  0  0  0  0  0  0
  130.9950   93.2580  166.1790 N   0  0  0  0  0  0  0  0  0  0  0  0
  131.7290   93.3010  167.0950 O   0  0  0  0  0  0  0  0  0  0  0  0
  130.6680   94.4230  165.4780 O   0  0  0  0  0  0  0  0  0  0  0  0
  161.0330  125.9240  162.6250 C   0  0  0  0  0  0  0  0  0  0  0  0
  161.1320  127.3440  162.9560 C   0  0  0  0  0  0  0  0  0  0  0  0
  162.4660  127.8450  163.2080 C   0  0  0  0  0  0  0  0  0  0  0  0
  163.4730  127.5030  162.2690 N   0  0  0  0  0  0  0  0  0  0  0  0
  163.2310  126.3000  161.4460 C   0  0  0  0  0  0  0  0  0  0  0  0
  164.0320  125.9770  160.6450 O   0  0  0  0  0  0  0  0  0  0  0  0
  162.0020  125.4810  161.6090 N   0  0  0  0  0  0  0  0  0  0  0  0
  161.6950  124.3060  160.8570 C   0  0  0  0  0  0  0  0  0  0  0  0
  161.8490  123.0800  161.4400 C   0  0  0  0  0  0  0  0  0  0  0  0
  161.5210  121.9570  160.7150 C   0  0  0  0  0  0  0  0  0  0  0  0
  161.0420  122.0660  159.4280 C   0  0  0  0  0  0  0  0  0  0  0  0
  160.8770  123.3060  158.8560 C   0  0  0  0  0  0  0  0  0  0  0  0
  161.2030  124.4250  159.5810 C   0  0  0  0  0  0  0  0  0  0  0  0
  161.0390  125.6900  159.0220 O   0  0  0  0  0  0  0  0  0  0  0  0
  162.6020  128.9080  164.2700 C   0  0  0  0  0  0  0  0  0  0  0  0
  161.4440  129.4630  164.7470 C   0  0  0  0  0  0  0  0  0  0  0  0
  161.4940  130.4270  165.7270 C   0  0  0  0  0  0  0  0  0  0  0  0
  162.7150  130.8320  166.2370 C   0  0  0  0  0  0  0  0  0  0  0  0
  163.8800  130.2590  165.7570 C   0  0  0  0  0  0  0  0  0  0  0  0
  163.8170  129.2980  164.7670 C   0  0  0  0  0  0  0  0  0  0  0  0
  160.2420  130.9950  166.1790 N   0  0  0  0  0  0  0  0  0  0  0  0
  160.1990  131.7290  167.0960 O   0  0  0  0  0  0  0  0  0  0  0  0
  159.0770  130.6680  165.4780 O   0  0  0  0  0  0  0  0  0  0  0  0
  127.5760  161.0320  162.6230 C   0  0  0  0  0  0  0  0  0  0  0  0
  126.1570  161.1320  162.9530 C   0  0  0  0  0  0  0  0  0  0  0  0
  125.6560  162.4650  163.2050 C   0  0  0  0  0  0  0  0  0  0  0  0
  125.9980  163.4730  162.2660 N   0  0  0  0  0  0  0  0  0  0  0  0
  127.2010  163.2300  161.4430 C   0  0  0  0  0  0  0  0  0  0  0  0
  127.5230  164.0310  160.6420 O   0  0  0  0  0  0  0  0  0  0  0  0
  128.0190  162.0010  161.6060 N   0  0  0  0  0  0  0  0  0  0  0  0
  129.1940  161.6950  160.8540 C   0  0  0  0  0  0  0  0  0  0  0  0
  130.4210  161.8490  161.4380 C   0  0  0  0  0  0  0  0  0  0  0  0
  131.5430  161.5200  160.7130 C   0  0  0  0  0  0  0  0  0  0  0  0
  131.4350  161.0410  159.4260 C   0  0  0  0  0  0  0  0  0  0  0  0
  130.1950  160.8760  158.8540 C   0  0  0  0  0  0  0  0  0  0  0  0
  129.0760  161.2030  159.5790 C   0  0  0  0  0  0  0  0  0  0  0  0
  127.8100  161.0390  159.0190 O   0  0  0  0  0  0  0  0  0  0  0  0
  124.5920  162.6010  164.2680 C   0  0  0  0  0  0  0  0  0  0  0  0
  124.0370  161.4430  164.7450 C   0  0  0  0  0  0  0  0  0  0  0  0
  123.0740  161.4940  165.7240 C   0  0  0  0  0  0  0  0  0  0  0  0
  122.6680  162.7150  166.2340 C   0  0  0  0  0  0  0  0  0  0  0  0
  123.2420  163.8800  165.7550 C   0  0  0  0  0  0  0  0  0  0  0  0
  124.2030  163.8170  164.7640 C   0  0  0  0  0  0  0  0  0  0  0  0
  122.5050  160.2420  166.1770 N   0  0  0  0  0  0  0  0  0  0  0  0
  121.7710  160.1990  167.0930 O   0  0  0  0  0  0  0  0  0  0  0  0
  122.8330  159.0770  165.4760 O   0  0  0  0  0  0  0  0  0  0  0  0
   92.4680  127.5760  162.6220 C   0  0  0  0  0  0  0  0  0  0  0  0
   92.3690  126.1560  162.9530 C   0  0  0  0  0  0  0  0  0  0  0  0
   91.0350  125.6550  163.2050 C   0  0  0  0  0  0  0  0  0  0  0  0
   90.0280  125.9980  162.2660 N   0  0  0  0  0  0  0  0  0  0  0  0
   90.2700  127.2000  161.4420 C   0  0  0  0  0  0  0  0  0  0  0  0
   89.4690  127.5230  160.6410 O   0  0  0  0  0  0  0  0  0  0  0  0
   91.4990  128.0190  161.6060 N   0  0  0  0  0  0  0  0  0  0  0  0
   91.8060  129.1940  160.8540 C   0  0  0  0  0  0  0  0  0  0  0  0
   91.6520  130.4210  161.4370 C   0  0  0  0  0  0  0  0  0  0  0  0
   91.9800  131.5430  160.7120 C   0  0  0  0  0  0  0  0  0  0  0  0
   92.4590  131.4340  159.4250 C   0  0  0  0  0  0  0  0  0  0  0  0
   92.6240  130.1940  158.8530 C   0  0  0  0  0  0  0  0  0  0  0  0
   92.2980  129.0750  159.5780 C   0  0  0  0  0  0  0  0  0  0  0  0
   92.4620  127.8100  159.0190 O   0  0  0  0  0  0  0  0  0  0  0  0
   90.8990  124.5920  164.2670 C   0  0  0  0  0  0  0  0  0  0  0  0
   92.0570  124.0370  164.7440 C   0  0  0  0  0  0  0  0  0  0  0  0
   92.0060  123.0740  165.7240 C   0  0  0  0  0  0  0  0  0  0  0  0
   90.7860  122.6680  166.2340 C   0  0  0  0  0  0  0  0  0  0  0  0
   89.6210  123.2420  165.7540 C   0  0  0  0  0  0  0  0  0  0  0  0
   89.6830  124.2030  164.7640 C   0  0  0  0  0  0  0  0  0  0  0  0
   93.2580  122.5050  166.1760 N   0  0  0  0  0  0  0  0  0  0  0  0
   93.3010  121.7710  167.0930 O   0  0  0  0  0  0  0  0  0  0  0  0
   94.4240  122.8330  165.4750 O   0  0  0  0  0  0  0  0  0  0  0  0
  1  2  1  0  0  0  0
  1  7  1  0  0  0  0
  2  3  1  0  0  0  0
  3  4  1  0  0  0  0
  3 15  1  0  0  0  0
  4  5  1  0  0  0  0
  5  6  2  0  0  0  0
  5  7  1  0  0  0  0
  7  8  1  0  0  0  0
  8  9  4  0  0  0  0
  8 13  4  0  0  0  0
  9 10  4  0  0  0  0
 10 11  4  0  0  0  0
 11 12  4  0  0  0  0
 12 13  4  0  0  0  0
 13 14  1  0  0  0  0
 15 16  4  0  0  0  0
 15 20  4  0  0  0  0
 16 17  4  0  0  0  0
 17 18  4  0  0  0  0
 17 21  1  0  0  0  0
 18 19  4  0  0  0  0
 19 20  4  0  0  0  0
 21 22  4  0  0  0  0
 21 23  4  0  0  0  0
 24 25  1  0  0  0  0
 24 30  1  0  0  0  0
 25 26  1  0  0  0  0
 26 27  1  0  0  0  0
 26 38  1  0  0  0  0
 27 28  1  0  0  0  0
 28 29  2  0  0  0  0
 28 30  1  0  0  0  0
 30 31  1  0  0  0  0
 31 32  4  0  0  0  0
 31 36  4  0  0  0  0
 32 33  4  0  0  0  0
 33 34  4  0  0  0  0
 34 35  4  0  0  0  0
 35 36  4  0  0  0  0
 36 37  1  0  0  0  0
 38 39  4  0  0  0  0
 38 43  4  0  0  0  0
 39 40  4  0  0  0  0
 40 41  4  0  0  0  0
 40 44  1  0  0  0  0
 41 42  4  0  0  0  0
 42 43  4  0  0  0  0
 44 45  4  0  0  0  0
 44 46  4  0  0  0  0
 47 48  1  0  0  0  0
 47 53  1  0  0  0  0
 48 49  1  0  0  0  0
 49 50  1  0  0  0  0
 49 61  1  0  0  0  0
 50 51  1  0  0  0  0
 51 52  2  0  0  0  0
 51 53  1  0  0  0  0
 53 54  1  0  0  0  0
 54 55  4  0  0  0  0
 54 59  4  0  0  0  0
 55 56  4  0  0  0  0
 56 57  4  0  0  0  0
 57 58  4  0  0  0  0
 58 59  4  0  0  0  0
 59 60  1  0  0  0  0
 61 62  4  0  0  0  0
 61 66  4  0  0  0  0
 62 63  4  0  0  0  0
 63 64  4  0  0  0  0
 63 67  1  0  0  0  0
 64 65  4  0  0  0  0
 65 66  4  0  0  0  0
 67 68  4  0  0  0  0
 67 69  4  0  0  0  0
 70 71  1  0  0  0  0
 70 76  1  0  0  0  0
 71 72  1  0  0  0  0
 72 73  1  0  0  0  0
 72 84  1  0  0  0  0
 73 74  1  0  0  0  0
 74 75  2  0  0  0  0
 74 76  1  0  0  0  0
 76 77  1  0  0  0  0
 77 78  4  0  0  0  0
 77 82  4  0  0  0  0
 78 79  4  0  0  0  0
 79 80  4  0  0  0  0
 80 81  4  0  0  0  0
 81 82  4  0  0  0  0
 82 83  1  0  0  0  0
 84 85  4  0  0  0  0
 84 89  4  0  0  0  0
 85 86  4  0  0  0  0
 86 87  4  0  0  0  0
 86 90  1  0  0  0  0
 87 88  4  0  0  0  0
 88 89  4  0  0  0  0
 90 91  4  0  0  0  0
 90 92  4  0  0  0  0
M  END
$$$$
