8TZ5
  PyMOL3.1          3D                             0

 31 32  0  0  0  0  0  0  0  0999 V2000
  156.7440  133.5540  137.9050 O   0  0  0  0  0  0  0  0  0  0  0  0
  157.0130  134.2830  138.7920 C   0  0  0  0  0  0  0  0  0  0  0  0
  157.6700  135.5790  138.5060 N   0  0  0  0  0  0  0  0  0  0  0  0
  158.0030  136.4790  139.5930 C   0  0  0  0  0  0  0  0  0  0  0  0
  158.6350  137.7260  139.3270 N   0  0  0  0  0  0  0  0  0  0  0  0
  158.9460  138.5770  140.3880 O   0  0  0  0  0  0  0  0  0  0  0  0
  157.6850  136.0970  140.9920 C   0  0  0  0  0  0  0  0  0  0  0  0
  157.0230  134.7930  141.2770 C   0  0  0  0  0  0  0  0  0  0  0  0
  156.6910  133.8990  140.1910 N   0  0  0  0  0  0  0  0  0  0  0  0
  156.0570  132.6460  140.4750 C   0  0  0  0  0  0  0  0  0  0  0  0
  155.5280  132.6860  141.6550 O   0  0  0  0  0  0  0  0  0  0  0  0
  155.9580  131.4200  142.3470 C   0  0  0  0  0  0  0  0  0  0  0  0
  156.2140  131.6480  143.7140 C   0  0  0  0  0  0  0  0  0  0  0  0
  157.0820  132.7340  143.8240 O   0  0  0  0  0  0  0  0  0  0  0  0
  157.2900  131.0200  141.6280 C   0  0  0  0  0  0  0  0  0  0  0  0
  157.4450  129.5200  141.6170 O   0  0  0  0  0  0  0  0  0  0  0  0
  157.1820  131.4520  140.4610 C   0  0  0  0  0  0  0  0  0  0  0  0
  156.7430  130.3620  139.5580 O   0  0  0  0  0  0  0  0  0  0  0  0
  158.8540  137.9900  138.3780 H   0  0  0  0  0  0  0  0  0  0  0  0
  159.6130  139.1920  140.1250 H   0  0  0  0  0  0  0  0  0  0  0  0
  157.9300  136.7630  141.8020 H   0  0  0  0  0  0  0  0  0  0  0  0
  156.7890  134.5140  142.2990 H   0  0  0  0  0  0  0  0  0  0  0  0
  155.2910  132.4370  139.7380 H   0  0  0  0  0  0  0  0  0  0  0  0
  155.2160  130.6560  142.2160 H   0  0  0  0  0  0  0  0  0  0  0  0
  156.6870  130.7600  144.1530 H   0  0  0  0  0  0  0  0  0  0  0  0
  155.2900  131.8640  144.2330 H   0  0  0  0  0  0  0  0  0  0  0  0
  157.7820  132.5160  144.4280 H   0  0  0  0  0  0  0  0  0  0  0  0
  158.1330  131.4860  142.1290 H   0  0  0  0  0  0  0  0  0  0  0  0
  158.1040  129.2700  142.2420 H   0  0  0  0  0  0  0  0  0  0  0  0
  158.1390  131.8530  140.1290 H   0  0  0  0  0  0  0  0  0  0  0  0
  156.8260  130.6450  138.6680 H   0  0  0  0  0  0  0  0  0  0  0  0
  1  2  2  0  0  0  0
  2  3  1  0  0  0  0
  3  4  2  0  0  0  0
  4  5  1  0  0  0  0
  5  6  1  0  0  0  0
  4  7  1  0  0  0  0
  7  8  2  0  0  0  0
  2  9  1  0  0  0  0
  8  9  1  0  0  0  0
  9 10  1  0  0  0  0
 10 11  1  0  0  0  0
 11 12  1  0  0  0  0
 12 13  1  0  0  0  0
 13 14  1  0  0  0  0
 12 15  1  0  0  0  0
 15 16  1  0  0  0  0
 10 17  1  0  0  0  0
 15 17  1  0  0  0  0
 17 18  1  0  0  0  0
  5 19  1  0  0  0  0
  6 20  1  0  0  0  0
  7 21  1  0  0  0  0
  8 22  1  0  0  0  0
 10 23  1  0  0  0  0
 12 24  1  0  0  0  0
 13 25  1  0  0  0  0
 13 26  1  0  0  0  0
 14 27  1  0  0  0  0
 15 28  1  0  0  0  0
 16 29  1  0  0  0  0
 17 30  1  0  0  0  0
 18 31  1  0  0  0  0
M  END
$$$$
