8XIO
  PyMOL3.1          3D                             0

 45 48  0  0  0  0  0  0  0  0999 V2000
  154.0060  127.0580   97.2830 C   0  0  0  0  0  0  0  0  0  0  0  0
  152.5150  127.3320   97.1310 C   0  0  0  0  0  0  0  0  0  0  0  0
  152.1120  126.9850   95.6890 C   0  0  0  0  0  0  0  0  0  0  0  0
  151.4870  128.1370   94.9020 C   0  0  0  0  0  0  0  0  0  0  0  0
  151.6150  127.8930   93.4860 N   0  0  0  0  0  0  0  0  0  0  0  0
  152.2020  128.7820   97.5390 C   0  0  0  0  0  0  0  0  0  0  0  0
  151.1200  128.9560   98.6220 C   0  0  0  0  0  0  0  0  0  0  0  0
  151.7120  129.3850   99.9620 C   0  0  0  0  0  0  0  0  0  0  0  0
  150.1790  130.0650   98.2080 C   0  0  0  0  0  0  0  0  0  0  0  0
  150.2940  127.6750   98.7670 C   0  0  0  0  0  0  0  0  0  0  0  0
  149.4160  127.8170   99.9140 N   0  0  0  0  0  0  0  0  0  0  0  0
  149.3620  126.7440  100.8810 C   0  0  0  0  0  0  0  0  0  0  0  0
  150.0270  125.7790  100.7560 O   0  0  0  0  0  0  0  0  0  0  0  0
  148.4620  126.9050  102.0820 C   0  0  0  0  0  0  0  0  0  0  0  0
  147.5290  128.1260  101.9050 C   0  0  0  0  0  0  0  0  0  0  0  0
  147.6450  129.1530  103.0370 C   0  0  0  0  0  0  0  0  0  0  0  0
  148.4880  130.2480  102.9230 C   0  0  0  0  0  0  0  0  0  0  0  0
  148.6010  131.1660  103.9640 C   0  0  0  0  0  0  0  0  0  0  0  0
  147.8820  131.0170  105.1320 C   0  0  0  0  0  0  0  0  0  0  0  0
  147.0220  129.9020  105.2450 C   0  0  0  0  0  0  0  0  0  0  0  0
  146.2840  129.7440  106.4280 C   0  0  0  0  0  0  0  0  0  0  0  0
  145.4580  128.6480  106.5410 C   0  0  0  0  0  0  0  0  0  0  0  0
  145.3130  127.7230  105.5180 C   0  0  0  0  0  0  0  0  0  0  0  0
  146.0240  127.8820  104.3650 C   0  0  0  0  0  0  0  0  0  0  0  0
  146.8940  128.9930  104.2350 C   0  0  0  0  0  0  0  0  0  0  0  0
  149.4060  127.1870  103.1560 N   0  0  0  0  0  0  0  0  0  0  0  0
  149.5690  126.6570  104.5130 C   0  0  0  0  0  0  0  0  0  0  0  0
  150.4510  127.1810  105.0710 O   0  0  0  0  0  0  0  0  0  0  0  0
  148.8460  125.6070  105.2510 N   0  0  0  0  0  0  0  0  0  0  0  0
  149.2670  125.3630  106.6210 C   0  0  0  0  0  0  0  0  0  0  0  0
  148.3740  126.3170  107.4060 C   0  0  0  0  0  0  0  0  0  0  0  0
  148.6230  126.4370  108.8890 C   0  0  0  0  0  0  0  0  0  0  0  0
  147.5670  126.6080  109.7400 C   0  0  0  0  0  0  0  0  0  0  0  0
  147.7920  126.7150  111.0920 C   0  0  0  0  0  0  0  0  0  0  0  0
  149.0730  126.6570  111.5830 C   0  0  0  0  0  0  0  0  0  0  0  0
  150.1270  126.4870  110.7250 C   0  0  0  0  0  0  0  0  0  0  0  0
  149.8880  126.3660  109.3820 C   0  0  0  0  0  0  0  0  0  0  0  0
  147.7070  124.8310  104.7880 C   0  0  0  0  0  0  0  0  0  0  0  0
  148.1250  123.4310  104.3650 C   0  0  0  0  0  0  0  0  0  0  0  0
  147.1860  122.3490  104.9180 C   0  0  0  0  0  0  0  0  0  0  0  0
  146.7830  121.3020  104.1020 C   0  0  0  0  0  0  0  0  0  0  0  0
  145.9370  120.3260  104.6020 C   0  0  0  0  0  0  0  0  0  0  0  0
  145.5270  120.4310  105.9200 C   0  0  0  0  0  0  0  0  0  0  0  0
  145.9770  121.4940  106.6810 C   0  0  0  0  0  0  0  0  0  0  0  0
  146.7820  122.4080  106.1680 N   0  0  0  0  0  0  0  0  0  0  0  0
  1  2  1  0  0  0  0
  2  3  1  0  0  0  0
  3  4  1  0  0  0  0
  4  5  1  0  0  0  0
  2  6  1  0  0  0  0
  6  7  1  0  0  0  0
  7  8  1  0  0  0  0
  7  9  1  0  0  0  0
  7 10  1  0  0  0  0
 10 11  1  0  0  0  0
 11 12  1  0  0  0  0
 12 13  2  0  0  0  0
 12 14  1  0  0  0  0
 14 15  1  0  0  0  0
 15 16  1  0  0  0  0
 16 17  2  0  0  0  0
 17 18  1  0  0  0  0
 18 19  2  0  0  0  0
 19 20  1  0  0  0  0
 20 21  2  0  0  0  0
 21 22  1  0  0  0  0
 22 23  2  0  0  0  0
 23 24  1  0  0  0  0
 16 25  1  0  0  0  0
 20 25  1  0  0  0  0
 24 25  2  0  0  0  0
 14 26  1  0  0  0  0
 26 27  1  0  0  0  0
 27 28  2  0  0  0  0
 27 29  1  0  0  0  0
 29 30  1  0  0  0  0
 30 31  1  0  0  0  0
 31 32  1  0  0  0  0
 32 33  1  0  0  0  0
 33 34  2  0  0  0  0
 34 35  1  0  0  0  0
 35 36  2  0  0  0  0
 32 37  2  0  0  0  0
 36 37  1  0  0  0  0
 29 38  1  0  0  0  0
 38 39  1  0  0  0  0
 39 40  1  0  0  0  0
 40 41  1  0  0  0  0
 41 42  2  0  0  0  0
 42 43  1  0  0  0  0
 43 44  2  0  0  0  0
 40 45  2  0  0  0  0
 44 45  1  0  0  0  0
M  END
$$$$
