8DD2
  PyMOL3.1          3D                             0

 69 75  0  0  0  0  0  0  0  0999 V2000
  102.0620  121.8820  132.7020 C   0  0  0  0  0  0  0  0  0  0  0  0
  101.1850  122.9700  132.0500 C   0  0  0  0  0  0  0  0  0  0  0  0
  101.3210  124.2970  132.4520 C   0  0  0  0  0  0  0  0  0  0  0  0
  100.5190  125.2840  131.8600 C   0  0  0  0  0  0  0  0  0  0  0  0
   99.5940  124.9360  130.8830 C   0  0  0  0  0  0  0  0  0  0  0  0
   99.4630  123.6110  130.4800 C   0  0  0  0  0  0  0  0  0  0  0  0
  100.2630  122.6220  131.0710 C   0  0  0  0  0  0  0  0  0  0  0  0
   98.7590  125.9940  130.2560 C   0  0  0  0  0  0  0  0  0  0  0  0
   97.7200  126.6910  130.8410 C   0  0  0  0  0  0  0  0  0  0  0  0
   97.2560  127.5620  129.8910 N   0  0  0  0  0  0  0  0  0  0  0  0
   96.2470  128.4730  129.9400 C   0  0  0  0  0  0  0  0  0  0  0  0
   95.9320  129.2800  128.8300 C   0  0  0  0  0  0  0  0  0  0  0  0
   96.6680  129.1300  127.6770 C   0  0  0  0  0  0  0  0  0  0  0  0
   97.6880  128.2020  127.6220 C   0  0  0  0  0  0  0  0  0  0  0  0
   97.9820  127.4040  128.7720 C   0  0  0  0  0  0  0  0  0  0  0  0
   98.8950  126.4600  128.9760 N   0  0  0  0  0  0  0  0  0  0  0  0
   94.7920  130.3110  128.8990 C   0  0  0  0  0  0  0  0  0  0  0  0
   97.2080  126.5130  132.2400 C   0  0  0  0  0  0  0  0  0  0  0  0
   95.8000  125.9370  132.2620 C   0  0  0  0  0  0  0  0  0  0  0  0
   95.1580  125.8690  131.2180 O   0  0  0  0  0  0  0  0  0  0  0  0
   95.2430  125.5020  133.4030 N   0  0  0  0  0  0  0  0  0  0  0  0
   95.9680  125.5640  134.6630 C   0  0  0  0  0  0  0  0  0  0  0  0
   93.8960  124.9610  133.3840 C   0  0  0  0  0  0  0  0  0  0  0  0
  110.4620  133.8300  103.5270 C   0  0  0  0  0  0  0  0  0  0  0  0
  110.4680  134.9280  104.6140 C   0  0  0  0  0  0  0  0  0  0  0  0
  109.3360  135.7170  104.8100 C   0  0  0  0  0  0  0  0  0  0  0  0
  109.3320  136.7090  105.7980 C   0  0  0  0  0  0  0  0  0  0  0  0
  110.4620  136.9050  106.5810 C   0  0  0  0  0  0  0  0  0  0  0  0
  111.5920  136.1140  106.3960 C   0  0  0  0  0  0  0  0  0  0  0  0
  111.5960  135.1210  105.4040 C   0  0  0  0  0  0  0  0  0  0  0  0
  110.4500  137.9610  107.6240 C   0  0  0  0  0  0  0  0  0  0  0  0
  110.3060  139.3360  107.4650 C   0  0  0  0  0  0  0  0  0  0  0  0
  110.3550  139.8580  108.7280 N   0  0  0  0  0  0  0  0  0  0  0  0
  110.2660  141.1490  109.1350 C   0  0  0  0  0  0  0  0  0  0  0  0
  110.3430  141.4980  110.4910 C   0  0  0  0  0  0  0  0  0  0  0  0
  110.5240  140.4990  111.4190 C   0  0  0  0  0  0  0  0  0  0  0  0
  110.6210  139.1860  111.0070 C   0  0  0  0  0  0  0  0  0  0  0  0
  110.5310  138.8730  109.6150 C   0  0  0  0  0  0  0  0  0  0  0  0
  110.5910  137.7190  108.9640 N   0  0  0  0  0  0  0  0  0  0  0  0
  110.2260  142.9700  110.9180 C   0  0  0  0  0  0  0  0  0  0  0  0
  110.1050  140.1770  106.2270 C   0  0  0  0  0  0  0  0  0  0  0  0
  110.5260  139.6290  104.8700 C   0  0  0  0  0  0  0  0  0  0  0  0
  111.4240  138.8010  104.7720 O   0  0  0  0  0  0  0  0  0  0  0  0
  109.9160  140.0570  103.7520 N   0  0  0  0  0  0  0  0  0  0  0  0
  108.8530  141.0470  103.7930 C   0  0  0  0  0  0  0  0  0  0  0  0
  110.3020  139.5360  102.4570 C   0  0  0  0  0  0  0  0  0  0  0  0
  154.2710  108.6370  117.4740 C   0  0  0  0  0  0  0  0  0  0  0  0
  153.8970  108.6970  115.9850 C   0  0  0  0  0  0  0  0  0  0  0  0
  153.1690  107.6620  115.4140 C   0  0  0  0  0  0  0  0  0  0  0  0
  152.8320  107.7220  114.0580 C   0  0  0  0  0  0  0  0  0  0  0  0
  153.2160  108.8160  113.2990 C   0  0  0  0  0  0  0  0  0  0  0  0
  153.9510  109.8470  113.8770 C   0  0  0  0  0  0  0  0  0  0  0  0
  154.2900  109.7880  115.2300 C   0  0  0  0  0  0  0  0  0  0  0  0
  152.8540  108.8740  111.8600 C   0  0  0  0  0  0  0  0  0  0  0  0
  152.2540  109.9220  111.1890 C   0  0  0  0  0  0  0  0  0  0  0  0
  152.1190  109.5200  109.8970 N   0  0  0  0  0  0  0  0  0  0  0  0
  151.5930  110.1710  108.8330 C   0  0  0  0  0  0  0  0  0  0  0  0
  151.5550  109.5710  107.5690 C   0  0  0  0  0  0  0  0  0  0  0  0
  152.0600  108.3040  107.4200 C   0  0  0  0  0  0  0  0  0  0  0  0
  152.5940  107.6440  108.5040 C   0  0  0  0  0  0  0  0  0  0  0  0
  152.6160  108.2870  109.7760 C   0  0  0  0  0  0  0  0  0  0  0  0
  153.0650  107.8790  110.9530 N   0  0  0  0  0  0  0  0  0  0  0  0
  150.9560  110.3250  106.3780 C   0  0  0  0  0  0  0  0  0  0  0  0
  151.8060  111.2390  111.7540 C   0  0  0  0  0  0  0  0  0  0  0  0
  152.5390  112.4450  111.2010 C   0  0  0  0  0  0  0  0  0  0  0  0
  153.7620  112.4880  111.2310 O   0  0  0  0  0  0  0  0  0  0  0  0
  151.8560  113.4670  110.6800 N   0  0  0  0  0  0  0  0  0  0  0  0
  152.5790  114.6150  110.1530 C   0  0  0  0  0  0  0  0  0  0  0  0
  150.4040  113.4360  110.6360 C   0  0  0  0  0  0  0  0  0  0  0  0
  1  2  1  0  0  0  0
  2  3  1  0  0  0  0
  3  4  2  0  0  0  0
  4  5  1  0  0  0  0
  5  6  2  0  0  0  0
  2  7  2  0  0  0  0
  6  7  1  0  0  0  0
  5  8  1  0  0  0  0
  8  9  2  0  0  0  0
  9 10  1  0  0  0  0
 10 11  1  0  0  0  0
 11 12  2  0  0  0  0
 12 13  1  0  0  0  0
 13 14  2  0  0  0  0
 10 15  1  0  0  0  0
 14 15  1  0  0  0  0
  8 16  1  0  0  0  0
 15 16  2  0  0  0  0
 12 17  1  0  0  0  0
  9 18  1  0  0  0  0
 18 19  1  0  0  0  0
 19 20  2  0  0  0  0
 19 21  1  0  0  0  0
 21 22  1  0  0  0  0
 21 23  1  0  0  0  0
 24 25  1  0  0  0  0
 25 26  1  0  0  0  0
 26 27  2  0  0  0  0
 27 28  1  0  0  0  0
 28 29  2  0  0  0  0
 25 30  2  0  0  0  0
 29 30  1  0  0  0  0
 28 31  1  0  0  0  0
 31 32  2  0  0  0  0
 32 33  1  0  0  0  0
 33 34  1  0  0  0  0
 34 35  2  0  0  0  0
 35 36  1  0  0  0  0
 36 37  2  0  0  0  0
 33 38  1  0  0  0  0
 37 38  1  0  0  0  0
 31 39  1  0  0  0  0
 38 39  2  0  0  0  0
 35 40  1  0  0  0  0
 32 41  1  0  0  0  0
 41 42  1  0  0  0  0
 42 43  2  0  0  0  0
 42 44  1  0  0  0  0
 44 45  1  0  0  0  0
 44 46  1  0  0  0  0
 47 48  1  0  0  0  0
 48 49  1  0  0  0  0
 49 50  2  0  0  0  0
 50 51  1  0  0  0  0
 51 52  2  0  0  0  0
 48 53  2  0  0  0  0
 52 53  1  0  0  0  0
 51 54  1  0  0  0  0
 54 55  2  0  0  0  0
 55 56  1  0  0  0  0
 56 57  1  0  0  0  0
 57 58  2  0  0  0  0
 58 59  1  0  0  0  0
 59 60  2  0  0  0  0
 56 61  1  0  0  0  0
 60 61  1  0  0  0  0
 54 62  1  0  0  0  0
 61 62  2  0  0  0  0
 58 63  1  0  0  0  0
 55 64  1  0  0  0  0
 64 65  1  0  0  0  0
 65 66  2  0  0  0  0
 65 67  1  0  0  0  0
 67 68  1  0  0  0  0
 67 69  1  0  0  0  0
M  END
$$$$
