6Z4Q
  PyMOL3.1          3D                             0

101106  0  0  0  0  0  0  0  0999 V2000
  -23.7870    5.3950  -16.9590 N   0  0  0  0  0  0  0  0  0  0  0  0
  -23.4320   10.6540  -19.0020 C   0  0  0  0  0  0  0  0  0  0  0  0
  -23.0650    9.5240  -18.2170 O   0  0  0  0  0  0  0  0  0  0  0  0
  -21.7610    9.4170  -17.8200 C   0  0  0  0  0  0  0  0  0  0  0  0
  -22.7070    6.0910  -17.4580 N   0  0  0  0  0  0  0  0  0  0  0  0
  -19.9850    7.0660  -15.7000 O   0  0  0  0  0  0  0  0  0  0  0  0
  -20.7680   10.3330  -18.1360 C   0  0  0  0  0  0  0  0  0  0  0  0
  -19.0870    4.4200  -22.5120 N   0  0  0  0  0  0  0  0  0  0  0  0
  -19.5620    2.3760  -21.6960 O   0  0  0  0  0  0  0  0  0  0  0  0
  -19.4830   10.1450  -17.6520 C   0  0  0  0  0  0  0  0  0  0  0  0
  -16.3810    8.4050  -23.7990 N   0  0  0  0  0  0  0  0  0  0  0  0
  -25.7870    6.4520  -14.1900 O   0  0  0  0  0  0  0  0  0  0  0  0
  -19.1760    9.0610  -16.8450 C   0  0  0  0  0  0  0  0  0  0  0  0
  -25.9330    4.5820  -15.4800 N   0  0  0  0  0  0  0  0  0  0  0  0
  -25.7390    2.5720  -13.4600 O   0  0  0  0  0  0  0  0  0  0  0  0
  -20.1650    8.1420  -16.5250 C   0  0  0  0  0  0  0  0  0  0  0  0
  -26.8640    4.1690  -12.4180 O   0  0  0  0  0  0  0  0  0  0  0  0
  -18.6500    6.7110  -15.3440 C   0  0  0  0  0  0  0  0  0  0  0  0
  -21.4670    8.2980  -17.0260 C   0  0  0  0  0  0  0  0  0  0  0  0
  -22.5100    7.2730  -16.7970 C   0  0  0  0  0  0  0  0  0  0  0  0
  -23.4860    7.3530  -15.8330 C   0  0  0  0  0  0  0  0  0  0  0  0
  -24.2450    6.1790  -15.9640 C   0  0  0  0  0  0  0  0  0  0  0  0
  -21.9340    5.5190  -18.5150 C   0  0  0  0  0  0  0  0  0  0  0  0
  -22.3260    5.6930  -19.8510 C   0  0  0  0  0  0  0  0  0  0  0  0
  -21.5620    5.1050  -20.8580 C   0  0  0  0  0  0  0  0  0  0  0  0
  -20.4250    4.3620  -20.5530 C   0  0  0  0  0  0  0  0  0  0  0  0
  -20.0490    4.2100  -19.2230 C   0  0  0  0  0  0  0  0  0  0  0  0
  -20.7930    4.7840  -18.2060 C   0  0  0  0  0  0  0  0  0  0  0  0
  -19.6750    3.5860  -21.6330 C   0  0  0  0  0  0  0  0  0  0  0  0
  -19.4480    4.4050  -23.9240 C   0  0  0  0  0  0  0  0  0  0  0  0
  -18.0600    5.3810  -22.1110 C   0  0  0  0  0  0  0  0  0  0  0  0
  -17.7340    6.3950  -23.1950 C   0  0  0  0  0  0  0  0  0  0  0  0
  -16.7710    7.4780  -22.7370 C   0  0  0  0  0  0  0  0  0  0  0  0
  -15.1470    9.1000  -23.4490 C   0  0  0  0  0  0  0  0  0  0  0  0
  -17.4410    9.3750  -24.0590 C   0  0  0  0  0  0  0  0  0  0  0  0
  -23.5310    6.5210  -20.2640 C   0  0  0  0  0  0  0  0  0  0  0  0
  -23.1110    7.7580  -21.0570 C   0  0  0  0  0  0  0  0  0  0  0  0
  -24.5370    5.6970  -21.0660 C   0  0  0  0  0  0  0  0  0  0  0  0
  -25.3960    5.7580  -15.1280 C   0  0  0  0  0  0  0  0  0  0  0  0
  -27.0830    3.9490  -14.8320 C   0  0  0  0  0  0  0  0  0  0  0  0
  -28.3060    4.8980  -14.7630 C   0  0  0  0  0  0  0  0  0  0  0  0
  -28.7370    5.3000  -16.1790 C   0  0  0  0  0  0  0  0  0  0  0  0
  -29.1300    4.0580  -16.9780 C   0  0  0  0  0  0  0  0  0  0  0  0
  -30.2960    3.3550  -16.2870 C   0  0  0  0  0  0  0  0  0  0  0  0
  -29.8750    2.9450  -14.8770 C   0  0  0  0  0  0  0  0  0  0  0  0
  -29.4850    4.1890  -14.0820 C   0  0  0  0  0  0  0  0  0  0  0  0
  -28.6800    1.9960  -14.9570 C   0  0  0  0  0  0  0  0  0  0  0  0
  -27.5000    2.6960  -15.6440 C   0  0  0  0  0  0  0  0  0  0  0  0
  -27.9390    3.1070  -17.0570 C   0  0  0  0  0  0  0  0  0  0  0  0
  -26.5640    3.5820  -13.4390 C   0  0  0  0  0  0  0  0  0  0  0  0
  -24.4920   10.4980  -19.2000 H   0  0  0  0  0  0  0  0  0  0  0  0
  -23.2730   11.5940  -18.4780 H   0  0  0  0  0  0  0  0  0  0  0  0
  -22.9040   10.6830  -19.9540 H   0  0  0  0  0  0  0  0  0  0  0  0
  -20.9470   11.2090  -18.7560 H   0  0  0  0  0  0  0  0  0  0  0  0
  -18.7100   10.8660  -17.9150 H   0  0  0  0  0  0  0  0  0  0  0  0
  -18.1450    8.9940  -16.5020 H   0  0  0  0  0  0  0  0  0  0  0  0
  -18.6200    5.8270  -14.7100 H   0  0  0  0  0  0  0  0  0  0  0  0
  -18.2180    6.4640  -16.3140 H   0  0  0  0  0  0  0  0  0  0  0  0
  -18.0780    7.5080  -14.8720 H   0  0  0  0  0  0  0  0  0  0  0  0
  -23.6450    8.1560  -15.1140 H   0  0  0  0  0  0  0  0  0  0  0  0
  -21.8460    5.2200  -21.9040 H   0  0  0  0  0  0  0  0  0  0  0  0
  -19.1590    3.6320  -18.9800 H   0  0  0  0  0  0  0  0  0  0  0  0
  -20.4780    4.6690  -17.1710 H   0  0  0  0  0  0  0  0  0  0  0  0
  -19.8360    5.3670  -24.2580 H   0  0  0  0  0  0  0  0  0  0  0  0
  -18.5980    4.1640  -24.5600 H   0  0  0  0  0  0  0  0  0  0  0  0
  -20.2150    3.6680  -24.1560 H   0  0  0  0  0  0  0  0  0  0  0  0
  -17.1460    4.8370  -21.8730 H   0  0  0  0  0  0  0  0  0  0  0  0
  -18.3880    5.9410  -21.2350 H   0  0  0  0  0  0  0  0  0  0  0  0
  -18.6440    6.8940  -23.5270 H   0  0  0  0  0  0  0  0  0  0  0  0
  -17.2750    5.8950  -24.0480 H   0  0  0  0  0  0  0  0  0  0  0  0
  -15.8730    6.9850  -22.3650 H   0  0  0  0  0  0  0  0  0  0  0  0
  -17.2480    8.0590  -21.9480 H   0  0  0  0  0  0  0  0  0  0  0  0
  -14.3020    8.9630  -24.1230 H   0  0  0  0  0  0  0  0  0  0  0  0
  -15.3070   10.1770  -23.4550 H   0  0  0  0  0  0  0  0  0  0  0  0
  -14.7920    8.7720  -22.4730 H   0  0  0  0  0  0  0  0  0  0  0  0
  -17.1840   10.4240  -23.9150 H   0  0  0  0  0  0  0  0  0  0  0  0
  -17.7580    9.3110  -25.0990 H   0  0  0  0  0  0  0  0  0  0  0  0
  -18.2970    9.2040  -23.4080 H   0  0  0  0  0  0  0  0  0  0  0  0
  -24.0570    6.8830  -19.3820 H   0  0  0  0  0  0  0  0  0  0  0  0
  -22.9630    7.5370  -22.1120 H   0  0  0  0  0  0  0  0  0  0  0  0
  -23.8710    8.5370  -21.0000 H   0  0  0  0  0  0  0  0  0  0  0  0
  -22.1840    8.2060  -20.7020 H   0  0  0  0  0  0  0  0  0  0  0  0
  -25.5270    6.1510  -21.0330 H   0  0  0  0  0  0  0  0  0  0  0  0
  -24.2570    5.6210  -22.1170 H   0  0  0  0  0  0  0  0  0  0  0  0
  -24.6360    4.6760  -20.6960 H   0  0  0  0  0  0  0  0  0  0  0  0
  -25.5230    4.0470  -16.2390 H   0  0  0  0  0  0  0  0  0  0  0  0
  -28.0570    5.7910  -14.1920 H   0  0  0  0  0  0  0  0  0  0  0  0
  -29.5860    5.9780  -16.1070 H   0  0  0  0  0  0  0  0  0  0  0  0
  -27.9870    5.8850  -16.7100 H   0  0  0  0  0  0  0  0  0  0  0  0
  -29.4150    4.3540  -17.9870 H   0  0  0  0  0  0  0  0  0  0  0  0
  -31.1730    4.0000  -16.2640 H   0  0  0  0  0  0  0  0  0  0  0  0
  -30.6100    2.4860  -16.8630 H   0  0  0  0  0  0  0  0  0  0  0  0
  -30.6950    2.4390  -14.3720 H   0  0  0  0  0  0  0  0  0  0  0  0
  -29.2980    3.9480  -13.0370 H   0  0  0  0  0  0  0  0  0  0  0  0
  -30.3330    4.8700  -14.0310 H   0  0  0  0  0  0  0  0  0  0  0  0
  -28.3890    1.6750  -13.9590 H   0  0  0  0  0  0  0  0  0  0  0  0
  -28.9420    1.0660  -15.4580 H   0  0  0  0  0  0  0  0  0  0  0  0
  -26.6630    2.0040  -15.7180 H   0  0  0  0  0  0  0  0  0  0  0  0
  -27.1130    3.5580  -17.6050 H   0  0  0  0  0  0  0  0  0  0  0  0
  -28.2060    2.2280  -17.6420 H   0  0  0  0  0  0  0  0  0  0  0  0
  -25.4880    2.3510  -14.4790 H   0  0  0  0  0  0  0  0  0  0  0  0
  2  3  1  0  0  0  0
  3  4  1  0  0  0  0
  1  5  1  0  0  0  0
  4  7  2  0  0  0  0
  7 10  1  0  0  0  0
 10 13  2  0  0  0  0
  6 16  1  0  0  0  0
 13 16  1  0  0  0  0
  6 18  1  0  0  0  0
  4 19  1  0  0  0  0
 16 19  2  0  0  0  0
  5 20  1  0  0  0  0
 19 20  1  0  0  0  0
 20 21  2  0  0  0  0
  1 22  2  0  0  0  0
 21 22  1  0  0  0  0
  5 23  1  0  0  0  0
 23 24  2  0  0  0  0
 24 25  1  0  0  0  0
 25 26  2  0  0  0  0
 26 27  1  0  0  0  0
 23 28  1  0  0  0  0
 27 28  2  0  0  0  0
  8 29  1  0  0  0  0
  9 29  2  0  0  0  0
 26 29  1  0  0  0  0
  8 30  1  0  0  0  0
  8 31  1  0  0  0  0
 31 32  1  0  0  0  0
 11 33  1  0  0  0  0
 32 33  1  0  0  0  0
 11 34  1  0  0  0  0
 11 35  1  0  0  0  0
 24 36  1  0  0  0  0
 36 37  1  0  0  0  0
 36 38  1  0  0  0  0
 12 39  2  0  0  0  0
 14 39  1  0  0  0  0
 22 39  1  0  0  0  0
 14 40  1  0  0  0  0
 40 41  1  0  0  0  0
 41 42  1  0  0  0  0
 42 43  1  0  0  0  0
 43 44  1  0  0  0  0
 44 45  1  0  0  0  0
 41 46  1  0  0  0  0
 45 46  1  0  0  0  0
 45 47  1  0  0  0  0
 40 48  1  0  0  0  0
 47 48  1  0  0  0  0
 43 49  1  0  0  0  0
 48 49  1  0  0  0  0
 15 50  1  0  0  0  0
 17 50  2  0  0  0  0
 40 50  1  0  0  0  0
  2 51  1  0  0  0  0
  2 52  1  0  0  0  0
  2 53  1  0  0  0  0
  7 54  1  0  0  0  0
 10 55  1  0  0  0  0
 13 56  1  0  0  0  0
 18 57  1  0  0  0  0
 18 58  1  0  0  0  0
 18 59  1  0  0  0  0
 21 60  1  0  0  0  0
 25 61  1  0  0  0  0
 27 62  1  0  0  0  0
 28 63  1  0  0  0  0
 30 64  1  0  0  0  0
 30 65  1  0  0  0  0
 30 66  1  0  0  0  0
 31 67  1  0  0  0  0
 31 68  1  0  0  0  0
 32 69  1  0  0  0  0
 32 70  1  0  0  0  0
 33 71  1  0  0  0  0
 33 72  1  0  0  0  0
 34 73  1  0  0  0  0
 34 74  1  0  0  0  0
 34 75  1  0  0  0  0
 35 76  1  0  0  0  0
 35 77  1  0  0  0  0
 35 78  1  0  0  0  0
 36 79  1  0  0  0  0
 37 80  1  0  0  0  0
 37 81  1  0  0  0  0
 37 82  1  0  0  0  0
 38 83  1  0  0  0  0
 38 84  1  0  0  0  0
 38 85  1  0  0  0  0
 14 86  1  0  0  0  0
 41 87  1  0  0  0  0
 42 88  1  0  0  0  0
 42 89  1  0  0  0  0
 43 90  1  0  0  0  0
 44 91  1  0  0  0  0
 44 92  1  0  0  0  0
 45 93  1  0  0  0  0
 46 94  1  0  0  0  0
 46 95  1  0  0  0  0
 47 96  1  0  0  0  0
 47 97  1  0  0  0  0
 48 98  1  0  0  0  0
 49 99  1  0  0  0  0
 49100  1  0  0  0  0
 15101  1  0  0  0  0
M  END
$$$$
