8Y2D
  PyMOL3.1          3D                             0

 11 11  0  0  0  0  0  0  0  0999 V2000
  111.3370  105.8490  106.5930 C   0  0  0  0  0  0  0  0  0  0  0  0
  110.1350  109.4300  107.1450 N   0  0  0  0  0  0  0  0  0  0  0  0
  111.3500  102.8880  104.4440 O   0  0  0  0  0  0  0  0  0  0  0  0
  111.3240  105.0500  105.4530 C   0  0  0  0  0  0  0  0  0  0  0  0
  111.4210  101.7090  106.9060 O   0  0  0  0  0  0  0  0  0  0  0  0
  111.3560  103.6680  105.5540 C   0  0  0  0  0  0  0  0  0  0  0  0
  111.4000  103.0630  106.8130 C   0  0  0  0  0  0  0  0  0  0  0  0
  111.4130  103.8570  107.9500 C   0  0  0  0  0  0  0  0  0  0  0  0
  111.3820  105.2350  107.8370 C   0  0  0  0  0  0  0  0  0  0  0  0
  111.3000  107.3530  106.4720 C   0  0  0  0  0  0  0  0  0  0  0  0
  110.1520  107.9500  107.2530 C   0  0  0  0  0  0  0  0  0  0  0  0
  1  4  2  0  0  0  0
  3  6  1  0  0  0  0
  4  6  1  0  0  0  0
  5  7  1  0  0  0  0
  6  7  2  0  0  0  0
  7  8  1  0  0  0  0
  1  9  1  0  0  0  0
  8  9  2  0  0  0  0
  1 10  1  0  0  0  0
  2 11  1  0  0  0  0
 10 11  1  0  0  0  0
M  END
$$$$
