6QU3
  PyMOL3.1          3D                             0

 19 21  0  0  0  0  0  0  0  0999 V2000
   28.2790   43.5820  127.0110 N   0  0  0  0  0  0  0  0  0  0  0  0
   28.0730   45.0560  125.3300 C   0  0  0  0  0  0  0  0  0  0  0  0
   27.8380   46.6190  123.5710 O   0  0  0  0  0  0  0  0  0  0  0  0
   25.0450   37.7280  126.7570 Cl  0  0  0  0  0  0  0  0  0  0  0  0
   24.3000   39.7430  128.9000 Cl  0  0  0  0  0  0  0  0  0  0  0  0
   28.8450   43.9130  125.8210 C   0  0  0  0  0  0  0  0  0  0  0  0
   29.5060   45.1180  123.3570 N   0  0  0  0  0  0  0  0  0  0  0  0
   27.2280   44.4000  127.3130 C   0  0  0  0  0  0  0  0  0  0  0  0
   27.0720   45.3240  126.2960 C   0  0  0  0  0  0  0  0  0  0  0  0
   28.7250   42.4720  127.8560 C   0  0  0  0  0  0  0  0  0  0  0  0
   27.8650   41.2660  127.5360 C   0  0  0  0  0  0  0  0  0  0  0  0
   26.6780   41.0960  128.2500 C   0  0  0  0  0  0  0  0  0  0  0  0
   25.8400   40.0100  127.9880 C   0  0  0  0  0  0  0  0  0  0  0  0
   26.1920   39.0930  127.0110 C   0  0  0  0  0  0  0  0  0  0  0  0
   27.3770   39.2490  126.2750 C   0  0  0  0  0  0  0  0  0  0  0  0
   28.2210   40.3410  126.5410 C   0  0  0  0  0  0  0  0  0  0  0  0
   29.9050   43.4480  125.0460 C   0  0  0  0  0  0  0  0  0  0  0  0
   30.2080   44.0660  123.8270 C   0  0  0  0  0  0  0  0  0  0  0  0
   28.4690   45.6440  124.0280 C   0  0  0  0  0  0  0  0  0  0  0  0
  1  6  1  0  0  0  0
  2  6  2  0  0  0  0
  1  8  1  0  0  0  0
  2  9  1  0  0  0  0
  8  9  2  0  0  0  0
  1 10  1  0  0  0  0
 10 11  1  0  0  0  0
 11 12  1  0  0  0  0
  5 13  1  0  0  0  0
 12 13  2  0  0  0  0
  4 14  1  0  0  0  0
 13 14  1  0  0  0  0
 14 15  2  0  0  0  0
 11 16  2  0  0  0  0
 15 16  1  0  0  0  0
  6 17  1  0  0  0  0
  7 18  2  0  0  0  0
 17 18  1  0  0  0  0
  2 19  1  0  0  0  0
  3 19  2  0  0  0  0
  7 19  1  0  0  0  0
M  END
$$$$
