6QU3
  PyMOL3.1          3D                             0

 19 21  0  0  0  0  0  0  0  0999 V2000
   49.3710   14.7580  146.7500 N   0  0  0  0  0  0  0  0  0  0  0  0
   49.5280   12.5720  147.0820 C   0  0  0  0  0  0  0  0  0  0  0  0
   49.6810   10.2150  147.4300 O   0  0  0  0  0  0  0  0  0  0  0  0
   53.2840   18.2660  142.5690 Cl  0  0  0  0  0  0  0  0  0  0  0  0
   53.3400   18.9060  145.5130 Cl  0  0  0  0  0  0  0  0  0  0  0  0
   48.9810   13.6090  146.2090 C   0  0  0  0  0  0  0  0  0  0  0  0
   48.5070   10.9110  145.6250 N   0  0  0  0  0  0  0  0  0  0  0  0
   50.1170   14.5840  147.8790 C   0  0  0  0  0  0  0  0  0  0  0  0
   50.2370   13.2290  148.1160 C   0  0  0  0  0  0  0  0  0  0  0  0
   49.0090   16.0350  146.1750 C   0  0  0  0  0  0  0  0  0  0  0  0
   50.0650   16.5420  145.2540 C   0  0  0  0  0  0  0  0  0  0  0  0
   51.0490   17.3590  145.7770 C   0  0  0  0  0  0  0  0  0  0  0  0
   52.0200   17.8610  144.9260 C   0  0  0  0  0  0  0  0  0  0  0  0
   51.9970   17.5620  143.5810 C   0  0  0  0  0  0  0  0  0  0  0  0
   51.0050   16.7480  143.0510 C   0  0  0  0  0  0  0  0  0  0  0  0
   50.0290   16.2340  143.8950 C   0  0  0  0  0  0  0  0  0  0  0  0
   48.2260   13.2600  145.0980 C   0  0  0  0  0  0  0  0  0  0  0  0
   48.0090   11.9010  144.8380 C   0  0  0  0  0  0  0  0  0  0  0  0
   49.2410   11.1570  146.7240 C   0  0  0  0  0  0  0  0  0  0  0  0
  1  6  1  0  0  0  0
  2  6  2  0  0  0  0
  1  8  1  0  0  0  0
  2  9  1  0  0  0  0
  8  9  2  0  0  0  0
  1 10  1  0  0  0  0
 10 11  1  0  0  0  0
 11 12  1  0  0  0  0
  5 13  1  0  0  0  0
 12 13  2  0  0  0  0
  4 14  1  0  0  0  0
 13 14  1  0  0  0  0
 14 15  2  0  0  0  0
 11 16  2  0  0  0  0
 15 16  1  0  0  0  0
  6 17  1  0  0  0  0
  7 18  2  0  0  0  0
 17 18  1  0  0  0  0
  2 19  1  0  0  0  0
  3 19  2  0  0  0  0
  7 19  1  0  0  0  0
M  END
$$$$
