9FQI
  PyMOL3.1          3D                             0

 36 40  0  0  0  0  0  0  0  0999 V2000
   19.0090   25.2880   37.5720 N   0  0  0  0  0  0  0  0  0  0  0  0
   19.6640   26.3740   33.9280 C   0  0  0  0  0  0  0  0  0  0  0  0
   21.5370   20.4010   34.9310 O   0  0  0  0  0  0  0  0  0  0  0  0
   19.1620   26.4900   35.3680 C   0  0  0  0  0  0  0  0  0  0  0  0
   19.6630   20.9740   36.1930 N   0  0  0  0  0  0  0  0  0  0  0  0
   24.6820   16.4220   35.9950 O   0  0  0  0  0  0  0  0  0  0  0  0
   17.6730   26.7840   35.4340 C   0  0  0  0  0  0  0  0  0  0  0  0
   19.5620   19.1380   35.0450 N   0  0  0  0  0  0  0  0  0  0  0  0
   17.1590   26.8140   36.8750 C   0  0  0  0  0  0  0  0  0  0  0  0
   18.3410   19.2580   35.6990 N   0  0  0  0  0  0  0  0  0  0  0  0
   17.5600   25.5490   37.6360 C   0  0  0  0  0  0  0  0  0  0  0  0
   23.1460   14.8860   35.4870 N   0  0  0  0  0  0  0  0  0  0  0  0
   19.3750   24.0940   38.3560 C   0  0  0  0  0  0  0  0  0  0  0  0
   19.1430   22.7870   37.6290 C   0  0  0  0  0  0  0  0  0  0  0  0
   20.0210   22.1690   36.8090 C   0  0  0  0  0  0  0  0  0  0  0  0
   20.4070   20.1880   35.3250 C   0  0  0  0  0  0  0  0  0  0  0  0
   18.4310   20.3740   36.3880 C   0  0  0  0  0  0  0  0  0  0  0  0
   17.4930   21.0140   37.2580 C   0  0  0  0  0  0  0  0  0  0  0  0
   17.8670   22.1740   37.8360 C   0  0  0  0  0  0  0  0  0  0  0  0
   16.1710   20.3880   37.4760 C   0  0  0  0  0  0  0  0  0  0  0  0
   19.7870   18.0040   34.1930 C   0  0  0  0  0  0  0  0  0  0  0  0
   18.7130   17.3830   33.5860 C   0  0  0  0  0  0  0  0  0  0  0  0
   18.9250   16.2890   32.7680 C   0  0  0  0  0  0  0  0  0  0  0  0
   20.2030   15.8190   32.5480 C   0  0  0  0  0  0  0  0  0  0  0  0
   21.2960   16.4270   33.1500 C   0  0  0  0  0  0  0  0  0  0  0  0
   21.0780   17.5290   33.9770 C   0  0  0  0  0  0  0  0  0  0  0  0
   22.6930   15.8910   32.8990 C   0  0  0  0  0  0  0  0  0  0  0  0
   23.0110   16.1900   31.4300 C   0  0  0  0  0  0  0  0  0  0  0  0
   22.7670   14.3690   33.1170 C   0  0  0  0  0  0  0  0  0  0  0  0
   22.4370   14.0050   34.5480 C   0  0  0  0  0  0  0  0  0  0  0  0
   23.8910   15.9480   35.1860 C   0  0  0  0  0  0  0  0  0  0  0  0
   23.7390   16.5570   33.8140 C   0  0  0  0  0  0  0  0  0  0  0  0
   19.4550   25.2090   36.1680 C   0  0  0  0  0  0  0  0  0  0  0  0
   15.5080   20.2150   36.3500 F   0  0  0  0  0  0  0  0  0  0  0  0
   16.2650   19.1840   38.0630 F   0  0  0  0  0  0  0  0  0  0  0  0
   15.3930   21.1310   38.2600 F   0  0  0  0  0  0  0  0  0  0  0  0
  2  4  1  0  0  0  0
  4  7  1  0  0  0  0
  7  9  1  0  0  0  0
  8 10  1  0  0  0  0
  1 11  1  0  0  0  0
  9 11  1  0  0  0  0
  1 13  1  0  0  0  0
 13 14  1  0  0  0  0
  5 15  1  0  0  0  0
 14 15  2  0  0  0  0
  3 16  2  0  0  0  0
  5 16  1  0  0  0  0
  8 16  1  0  0  0  0
  5 17  2  0  0  0  0
 10 17  1  0  0  0  0
 17 18  1  0  0  0  0
 14 19  1  0  0  0  0
 18 19  2  0  0  0  0
 18 20  1  0  0  0  0
  8 21  1  0  0  0  0
 21 22  2  0  0  0  0
 22 23  1  0  0  0  0
 23 24  2  0  0  0  0
 24 25  1  0  0  0  0
 21 26  1  0  0  0  0
 25 26  2  0  0  0  0
 25 27  1  0  0  0  0
 27 28  1  0  0  0  0
 27 29  1  0  0  0  0
 12 30  1  0  0  0  0
 29 30  1  0  0  0  0
  6 31  2  0  0  0  0
 12 31  1  0  0  0  0
 27 32  1  0  0  0  0
 31 32  1  0  0  0  0
  1 33  1  0  0  0  0
  4 33  1  0  0  0  0
 20 34  1  0  0  0  0
 20 35  1  0  0  0  0
 20 36  1  0  0  0  0
M  END
$$$$
