7QNC
  PyMOL3.1          3D                             0

 10 11  0  0  0  0  0  0  0  0999 V2000
  100.9160  130.0430  109.3780 N   0  0  0  0  0  0  0  0  0  0  0  0
  101.1830  128.8720  110.2040 C   0  0  0  0  0  0  0  0  0  0  0  0
  101.1780  128.7430  111.4270 O   0  0  0  0  0  0  0  0  0  0  0  0
  101.3810  128.3760  107.9560 C   0  0  0  0  0  0  0  0  0  0  0  0
  101.3650  126.2030  107.0160 N   0  0  0  0  0  0  0  0  0  0  0  0
  101.0480  129.6940  108.0250 O   0  0  0  0  0  0  0  0  0  0  0  0
  101.4750  127.8430  109.1840 C   0  0  0  0  0  0  0  0  0  0  0  0
  101.8280  126.4010  109.4240 C   0  0  0  0  0  0  0  0  0  0  0  0
  102.2290  125.7540  108.1090 C   0  0  0  0  0  0  0  0  0  0  0  0
  101.6160  127.6080  106.6990 C   0  0  0  0  0  0  0  0  0  0  0  0
  1  2  4  0  0  0  0
  1  6  4  0  0  0  0
  2  3  2  0  0  0  0
  4  6  4  0  0  0  0
  5  9  1  0  0  0  0
  5 10  1  0  0  0  0
  2  7  4  0  0  0  0
  4  7  4  0  0  0  0
  7  8  1  0  0  0  0
  8  9  1  0  0  0  0
  4 10  1  0  0  0  0
M  END
$$$$
