7JV5
  PyMOL3.1          3D                             0

 20 22  0  0  0  0  0  0  0  0999 V2000
   89.6570  108.1820   82.4480 Cl  0  0  0  0  0  0  0  0  0  0  0  0
   89.1610  107.7390   78.5080 C   0  0  0  0  0  0  0  0  0  0  0  0
   92.0040  106.1230   78.2450 N   0  0  0  0  0  0  0  0  0  0  0  0
   86.7150  110.4180   79.0050 O   0  0  0  0  0  0  0  0  0  0  0  0
   89.6070  107.5910   79.8230 C   0  0  0  0  0  0  0  0  0  0  0  0
   87.6210  110.0990   81.5750 O   0  0  0  0  0  0  0  0  0  0  0  0
   88.1800  108.6980   78.2560 C   0  0  0  0  0  0  0  0  0  0  0  0
   89.0880  108.3820   80.8370 C   0  0  0  0  0  0  0  0  0  0  0  0
   87.6660  109.4870   79.2740 C   0  0  0  0  0  0  0  0  0  0  0  0
   88.1200  109.3300   80.5690 C   0  0  0  0  0  0  0  0  0  0  0  0
   89.7210  106.8610   77.3540 C   0  0  0  0  0  0  0  0  0  0  0  0
   91.2620  106.8610   77.2170 C   0  0  0  0  0  0  0  0  0  0  0  0
   90.6550  106.5900   80.2290 C   0  0  0  0  0  0  0  0  0  0  0  0
   91.9930  106.7980   79.5440 C   0  0  0  0  0  0  0  0  0  0  0  0
   89.2000  107.2640   75.9690 C   0  0  0  0  0  0  0  0  0  0  0  0
   88.0900  106.6210   75.4340 C   0  0  0  0  0  0  0  0  0  0  0  0
   89.8370  108.2630   75.2290 C   0  0  0  0  0  0  0  0  0  0  0  0
   87.6140  106.9780   74.1810 C   0  0  0  0  0  0  0  0  0  0  0  0
   89.3610  108.6180   73.9780 C   0  0  0  0  0  0  0  0  0  0  0  0
   88.2500  107.9750   73.4540 C   0  0  0  0  0  0  0  0  0  0  0  0
  2  5  4  0  0  0  0
  2  7  4  0  0  0  0
  2 11  1  0  0  0  0
  5  8  4  0  0  0  0
  5 13  1  0  0  0  0
  7  9  4  0  0  0  0
  1  8  1  0  0  0  0
  8 10  4  0  0  0  0
  4  9  1  0  0  0  0
  9 10  4  0  0  0  0
  6 10  1  0  0  0  0
 11 12  1  0  0  0  0
 11 15  1  0  0  0  0
  3 12  1  0  0  0  0
 13 14  1  0  0  0  0
  3 14  1  0  0  0  0
 15 16  4  0  0  0  0
 15 17  4  0  0  0  0
 16 18  4  0  0  0  0
 17 19  4  0  0  0  0
 18 20  4  0  0  0  0
 19 20  4  0  0  0  0
M  END
$$$$
