8ZOY
  PyMOL3.1          3D                             0

 23 23  0  0  0  0  0  0  0  0999 V2000
  129.2330  131.9110  129.8150 C   0  0  0  0  0  0  0  0  0  0  0  0
  128.9910  130.8630  130.5590 C   0  0  0  0  0  0  0  0  0  0  0  0
  131.2710  129.9770  130.2450 C   0  0  0  0  0  0  0  0  0  0  0  0
  130.2150  128.9150  133.0900 C   0  0  0  0  0  0  0  0  0  0  0  0
  130.6030  132.0980  129.1860 C   0  0  0  0  0  0  0  0  0  0  0  0
  131.5460  131.2020  129.3800 C   0  0  0  0  0  0  0  0  0  0  0  0
  130.0810  129.8260  130.7890 C   0  0  0  0  0  0  0  0  0  0  0  0
  129.7570  128.6240  131.6630 C   0  0  0  0  0  0  0  0  0  0  0  0
  130.5670  127.6710  133.7450 N   0  0  0  0  0  0  0  0  0  0  0  0
  130.8360  133.2240  128.3920 O   0  0  0  0  0  0  0  0  0  0  0  0
  132.7980  131.3820  128.7940 O   0  0  0  0  0  0  0  0  0  0  0  0
  130.4160  127.4980  131.1670 O   0  0  0  0  0  0  0  0  0  0  0  0
  131.2510  127.8520  134.4530 H   0  0  0  0  0  0  0  0  0  0  0  0
  130.9490  127.0360  133.0730 H   0  0  0  0  0  0  0  0  0  0  0  0
  128.4590  132.6460  129.6500 H   0  0  0  0  0  0  0  0  0  0  0  0
  128.0160  130.7320  131.0100 H   0  0  0  0  0  0  0  0  0  0  0  0
  132.0480  129.2400  130.4100 H   0  0  0  0  0  0  0  0  0  0  0  0
  131.0800  129.5670  133.0660 H   0  0  0  0  0  0  0  0  0  0  0  0
  129.4150  129.3980  133.6360 H   0  0  0  0  0  0  0  0  0  0  0  0
  128.6880  128.4510  131.6550 H   0  0  0  0  0  0  0  0  0  0  0  0
  130.0330  133.7090  128.2900 H   0  0  0  0  0  0  0  0  0  0  0  0
  132.7560  132.0940  128.1770 H   0  0  0  0  0  0  0  0  0  0  0  0
  129.9480  126.7220  131.4270 H   0  0  0  0  0  0  0  0  0  0  0  0
  1  2  1  0  0  0  0
  1  5  2  0  0  0  0
  3  6  2  0  0  0  0
  5  6  1  0  0  0  0
  2  7  2  0  0  0  0
  3  7  1  0  0  0  0
  4  8  1  0  0  0  0
  7  8  1  0  0  0  0
  4  9  1  0  0  0  0
  5 10  1  0  0  0  0
  6 11  1  0  0  0  0
  8 12  1  0  0  0  0
  9 13  1  0  0  0  0
  9 14  1  0  0  0  0
  1 15  1  0  0  0  0
  2 16  1  0  0  0  0
  3 17  1  0  0  0  0
  4 18  1  0  0  0  0
  4 19  1  0  0  0  0
  8 20  1  0  0  0  0
 10 21  1  0  0  0  0
 11 22  1  0  0  0  0
 12 23  1  0  0  0  0
M  END
$$$$
