7LEJ
  PyMOL3.1          3D                             0

 45 50  0  0  0  0  0  0  0  0999 V2000
   11.4000   -6.3880   -7.3960 C   0  0  0  0  0  0  0  0  0  0  0  0
   10.7490   -5.1120   -6.8260 C   0  0  0  0  0  0  0  0  0  0  0  0
   12.0450   -7.2130   -6.3680 N   0  0  0  0  0  0  0  0  0  0  0  0
   11.6550   -4.3460   -5.9620 N   0  0  0  0  0  0  0  0  0  0  0  0
   12.9280   -6.4410   -5.4860 C   0  0  0  0  0  0  0  0  0  0  0  0
   12.2630   -5.1740   -4.9190 C   0  0  0  0  0  0  0  0  0  0  0  0
   10.6250   -9.4340   -3.5060 C   0  0  0  0  0  0  0  0  0  0  0  0
   11.6200   -8.5600   -4.3000 C   0  0  0  0  0  0  0  0  0  0  0  0
    9.7870  -10.3760   -4.3870 C   0  0  0  0  0  0  0  0  0  0  0  0
   11.0280   -7.9960   -5.6030 C   0  0  0  0  0  0  0  0  0  0  0  0
   10.3430  -10.4730   -5.8130 C   0  0  0  0  0  0  0  0  0  0  0  0
   10.4580   -9.1010   -6.5100 C   0  0  0  0  0  0  0  0  0  0  0  0
   10.1690  -15.2580   -1.4260 C   0  0  0  0  0  0  0  0  0  0  0  0
    9.7020  -16.4460   -1.9730 C   0  0  0  0  0  0  0  0  0  0  0  0
    9.8600  -14.0840   -2.1000 C   0  0  0  0  0  0  0  0  0  0  0  0
    8.9460  -16.5000   -3.1120 C   0  0  0  0  0  0  0  0  0  0  0  0
    9.0830  -14.1200   -3.2590 C   0  0  0  0  0  0  0  0  0  0  0  0
    8.6320  -15.3280   -3.7920 C   0  0  0  0  0  0  0  0  0  0  0  0
    9.9300  -17.7840   -1.4640 N   0  0  0  0  0  0  0  0  0  0  0  0
   14.4410  -18.3660    3.0960 C   0  0  0  0  0  0  0  0  0  0  0  0
   14.3190  -16.8860    2.6610 C   0  0  0  0  0  0  0  0  0  0  0  0
   13.7080  -19.3210    2.3390 N   0  0  0  0  0  0  0  0  0  0  0  0
   13.1780  -16.5860    1.8620 N   0  0  0  0  0  0  0  0  0  0  0  0
   12.7410  -18.9280    1.2720 C   0  0  0  0  0  0  0  0  0  0  0  0
   12.4680  -17.5900    1.0790 C   0  0  0  0  0  0  0  0  0  0  0  0
   10.9390  -18.1550   -0.5150 C   0  0  0  0  0  0  0  0  0  0  0  0
   11.5750  -17.1980    0.1940 N   0  0  0  0  0  0  0  0  0  0  0  0
   11.1790  -19.4870   -0.3420 N   0  0  0  0  0  0  0  0  0  0  0  0
   12.0640  -19.8780    0.5740 C   0  0  0  0  0  0  0  0  0  0  0  0
   15.1660  -18.7010    3.9690 O   0  0  0  0  0  0  0  0  0  0  0  0
   15.6620  -16.5440    1.9110 C   0  0  0  0  0  0  0  0  0  0  0  0
   15.9330  -17.5610    0.7770 C   0  0  0  0  0  0  0  0  0  0  0  0
   12.7250  -15.1660    1.6320 C   0  0  0  0  0  0  0  0  0  0  0  0
   13.0800  -14.2510    2.8290 C   0  0  0  0  0  0  0  0  0  0  0  0
   13.2840  -14.5350    0.3120 C   0  0  0  0  0  0  0  0  0  0  0  0
   13.7540  -20.7500    2.7310 C   0  0  0  0  0  0  0  0  0  0  0  0
    8.5620  -17.8120   -3.4940 O   0  0  0  0  0  0  0  0  0  0  0  0
    7.5240  -17.9120   -4.4440 C   0  0  0  0  0  0  0  0  0  0  0  0
    8.8070  -12.7670   -3.9770 C   0  0  0  0  0  0  0  0  0  0  0  0
    7.8720  -12.6050   -4.6990 O   0  0  0  0  0  0  0  0  0  0  0  0
    9.8390  -11.7170   -3.7750 N   0  0  0  0  0  0  0  0  0  0  0  0
   10.9280   -3.2230   -5.3250 C   0  0  0  0  0  0  0  0  0  0  0  0
   11.7730   -1.9220   -5.4190 C   0  0  0  0  0  0  0  0  0  0  0  0
   11.5040   -0.8700   -4.3370 C   0  0  0  0  0  0  0  0  0  0  0  0
   12.7980   -1.6910   -4.3020 C   0  0  0  0  0  0  0  0  0  0  0  0
  1  2  1  0  0  0  0
  1  3  1  0  0  0  0
  2  4  1  0  0  0  0
  3  5  1  0  0  0  0
  4  6  1  0  0  0  0
  5  6  1  0  0  0  0
  7  8  1  0  0  0  0
  7  9  1  0  0  0  0
  3 10  1  0  0  0  0
  8 10  1  0  0  0  0
  9 11  1  0  0  0  0
 10 12  1  0  0  0  0
 11 12  1  0  0  0  0
 13 14  2  0  0  0  0
 13 15  1  0  0  0  0
 14 16  1  0  0  0  0
 15 17  2  0  0  0  0
 16 18  2  0  0  0  0
 17 18  1  0  0  0  0
 14 19  1  0  0  0  0
 20 21  1  0  0  0  0
 20 22  1  0  0  0  0
 21 23  1  0  0  0  0
 22 24  1  0  0  0  0
 23 25  1  0  0  0  0
 24 25  2  0  0  0  0
 19 26  1  0  0  0  0
 25 27  1  0  0  0  0
 26 27  2  0  0  0  0
 26 28  1  0  0  0  0
 24 29  1  0  0  0  0
 28 29  2  0  0  0  0
 20 30  2  0  0  0  0
 21 31  1  0  0  0  0
 31 32  1  0  0  0  0
 23 33  1  0  0  0  0
 33 34  1  0  0  0  0
 33 35  1  0  0  0  0
 22 36  1  0  0  0  0
 16 37  1  0  0  0  0
 37 38  1  0  0  0  0
 17 39  1  0  0  0  0
 39 40  2  0  0  0  0
  9 41  1  0  0  0  0
 39 41  1  0  0  0  0
  4 42  1  0  0  0  0
 42 43  1  0  0  0  0
 43 44  1  0  0  0  0
 43 45  1  0  0  0  0
 44 45  1  0  0  0  0
M  END
$$$$
