8E24
  PyMOL3.1          3D                             0

 33 35  0  0  0  0  0  0  0  0999 V2000
   24.7626    0.5959   66.5710 O   0  0  0  0  0  0  0  0  0  0  0  0
   24.9430    1.7239   66.1243 C   0  0  0  0  0  0  0  0  0  0  0  0
   25.0854    2.7726   67.0547 N   0  0  0  0  0  0  0  0  0  0  0  0
   25.0047    2.5740   68.5175 C   0  0  0  0  0  0  0  0  0  0  0  0
   24.0486    3.3174   69.3401 C   0  0  0  0  0  0  0  0  0  0  0  0
   23.2757    3.9225   69.9812 C   0  0  0  0  0  0  0  0  0  0  0  0
   22.3303    4.6596   70.7520 C   0  0  0  0  0  0  0  0  0  0  0  0
   22.7128    5.3827   71.8920 C   0  0  0  0  0  0  0  0  0  0  0  0
   21.7206    6.0860   72.6012 C   0  0  0  0  0  0  0  0  0  0  0  0
   20.4092    6.0217   72.1234 C   0  0  0  0  0  0  0  0  0  0  0  0
   20.1194    5.2892   70.9953 N   0  0  0  0  0  0  0  0  0  0  0  0
   21.0075    4.6517   70.3494 N   0  0  0  0  0  0  0  0  0  0  0  0
   25.3054    4.1900   66.6216 C   0  0  0  0  0  0  0  0  0  0  0  0
   26.5904    4.7682   66.6584 C   0  0  0  0  0  0  0  0  0  0  0  0
   26.8260    6.0877   66.2574 C   0  0  0  0  0  0  0  0  0  0  0  0
   25.7922    6.9002   65.7926 C   0  0  0  0  0  0  0  0  0  0  0  0
   24.5149    6.3519   65.7426 C   0  0  0  0  0  0  0  0  0  0  0  0
   24.2813    5.0294   66.1453 C   0  0  0  0  0  0  0  0  0  0  0  0
   25.0146    1.8864   64.5857 C   0  0  0  0  0  0  0  0  0  0  0  0
   25.4347    0.7404   63.6809 C   0  0  0  0  0  0  0  0  0  0  0  0
   24.5122   -0.1445   63.1854 C   0  0  0  0  0  0  0  0  0  0  0  0
   24.8440   -1.2157   62.3583 C   0  0  0  0  0  0  0  0  0  0  0  0
   26.1739   -1.4373   62.0006 C   0  0  0  0  0  0  0  0  0  0  0  0
   26.5164   -2.6216   61.0933 C   0  0  0  0  0  0  0  0  0  0  0  0
   27.1621   -0.5568   62.4917 C   0  0  0  0  0  0  0  0  0  0  0  0
   26.7903    0.5161   63.3259 C   0  0  0  0  0  0  0  0  0  0  0  0
   27.9122    1.4545   63.8358 C   0  0  0  0  0  0  0  0  0  0  0  0
   25.5073   -3.4137   60.7587 F   0  0  0  0  0  0  0  0  0  0  0  0
   27.4490   -3.4793   61.6189 F   0  0  0  0  0  0  0  0  0  0  0  0
   27.0900   -2.2792   59.9108 F   0  0  0  0  0  0  0  0  0  0  0  0
   27.9131    2.6819   63.2624 F   0  0  0  0  0  0  0  0  0  0  0  0
   29.1315    0.9625   63.5373 F   0  0  0  0  0  0  0  0  0  0  0  0
   27.9769    1.7076   65.1526 F   0  0  0  0  0  0  0  0  0  0  0  0
  1  2  2  0  0  0  0
  2  3  1  0  0  0  0
  3  4  1  0  0  0  0
  4  5  1  0  0  0  0
  5  6  3  0  0  0  0
  6  7  1  0  0  0  0
  7  8  1  0  0  0  0
  8  9  2  0  0  0  0
  9 10  1  0  0  0  0
 10 11  2  0  0  0  0
  7 12  2  0  0  0  0
 11 12  1  0  0  0  0
  3 13  1  0  0  0  0
 13 14  1  0  0  0  0
 14 15  2  0  0  0  0
 15 16  1  0  0  0  0
 16 17  2  0  0  0  0
 13 18  2  0  0  0  0
 17 18  1  0  0  0  0
  2 19  1  0  0  0  0
 19 20  1  0  0  0  0
 20 21  2  0  0  0  0
 21 22  1  0  0  0  0
 22 23  2  0  0  0  0
 23 24  1  0  0  0  0
 23 25  1  0  0  0  0
 20 26  1  0  0  0  0
 25 26  2  0  0  0  0
 26 27  1  0  0  0  0
 24 28  1  0  0  0  0
 24 29  1  0  0  0  0
 24 30  1  0  0  0  0
 27 31  1  0  0  0  0
 27 32  1  0  0  0  0
 27 33  1  0  0  0  0
M  END
$$$$
