8E24
  PyMOL3.1          3D                             0

 66 70  0  0  0  0  0  0  0  0999 V2000
   24.7626    0.5959   66.5710 O   0  0  0  0  0  0  0  0  0  0  0  0
   24.9430    1.7239   66.1243 C   0  0  0  0  0  0  0  0  0  0  0  0
   25.0854    2.7726   67.0547 N   0  0  0  0  0  0  0  0  0  0  0  0
   25.0047    2.5740   68.5175 C   0  0  0  0  0  0  0  0  0  0  0  0
   24.0486    3.3174   69.3401 C   0  0  0  0  0  0  0  0  0  0  0  0
   23.2757    3.9225   69.9812 C   0  0  0  0  0  0  0  0  0  0  0  0
   22.3303    4.6596   70.7520 C   0  0  0  0  0  0  0  0  0  0  0  0
   22.7128    5.3827   71.8920 C   0  0  0  0  0  0  0  0  0  0  0  0
   21.7206    6.0860   72.6012 C   0  0  0  0  0  0  0  0  0  0  0  0
   20.4092    6.0217   72.1234 C   0  0  0  0  0  0  0  0  0  0  0  0
   20.1194    5.2892   70.9953 N   0  0  0  0  0  0  0  0  0  0  0  0
   21.0075    4.6517   70.3494 N   0  0  0  0  0  0  0  0  0  0  0  0
   25.3054    4.1900   66.6216 C   0  0  0  0  0  0  0  0  0  0  0  0
   26.5904    4.7682   66.6584 C   0  0  0  0  0  0  0  0  0  0  0  0
   26.8260    6.0877   66.2574 C   0  0  0  0  0  0  0  0  0  0  0  0
   25.7922    6.9002   65.7926 C   0  0  0  0  0  0  0  0  0  0  0  0
   24.5149    6.3519   65.7426 C   0  0  0  0  0  0  0  0  0  0  0  0
   24.2813    5.0294   66.1453 C   0  0  0  0  0  0  0  0  0  0  0  0
   25.0146    1.8864   64.5857 C   0  0  0  0  0  0  0  0  0  0  0  0
   25.4347    0.7404   63.6809 C   0  0  0  0  0  0  0  0  0  0  0  0
   24.5122   -0.1445   63.1854 C   0  0  0  0  0  0  0  0  0  0  0  0
   24.8440   -1.2157   62.3583 C   0  0  0  0  0  0  0  0  0  0  0  0
   26.1739   -1.4373   62.0006 C   0  0  0  0  0  0  0  0  0  0  0  0
   26.5164   -2.6216   61.0933 C   0  0  0  0  0  0  0  0  0  0  0  0
   27.1621   -0.5568   62.4917 C   0  0  0  0  0  0  0  0  0  0  0  0
   26.7903    0.5161   63.3259 C   0  0  0  0  0  0  0  0  0  0  0  0
   27.9122    1.4545   63.8358 C   0  0  0  0  0  0  0  0  0  0  0  0
   25.5073   -3.4137   60.7587 F   0  0  0  0  0  0  0  0  0  0  0  0
   27.4490   -3.4793   61.6189 F   0  0  0  0  0  0  0  0  0  0  0  0
   27.0900   -2.2792   59.9108 F   0  0  0  0  0  0  0  0  0  0  0  0
   27.9131    2.6819   63.2624 F   0  0  0  0  0  0  0  0  0  0  0  0
   29.1315    0.9625   63.5373 F   0  0  0  0  0  0  0  0  0  0  0  0
   27.9769    1.7076   65.1526 F   0  0  0  0  0  0  0  0  0  0  0  0
   -7.8229    5.9136   41.6519 O   0  0  0  0  0  0  0  0  0  0  0  0
   -7.0131    5.2163   41.0500 C   0  0  0  0  0  0  0  0  0  0  0  0
   -5.8912    4.7485   41.7769 N   0  0  0  0  0  0  0  0  0  0  0  0
   -5.6608    5.0674   43.2031 C   0  0  0  0  0  0  0  0  0  0  0  0
   -4.3250    5.3482   43.7384 C   0  0  0  0  0  0  0  0  0  0  0  0
   -3.2547    5.5703   44.1635 C   0  0  0  0  0  0  0  0  0  0  0  0
   -1.9517    5.8386   44.6805 C   0  0  0  0  0  0  0  0  0  0  0  0
   -1.5071    5.2695   45.8848 C   0  0  0  0  0  0  0  0  0  0  0  0
   -0.2076    5.5802   46.3334 C   0  0  0  0  0  0  0  0  0  0  0  0
    0.5648    6.4404   45.5486 C   0  0  0  0  0  0  0  0  0  0  0  0
    0.0533    6.9560   44.3790 N   0  0  0  0  0  0  0  0  0  0  0  0
   -1.1182    6.6810   43.9657 N   0  0  0  0  0  0  0  0  0  0  0  0
   -4.8369    3.8888   41.1412 C   0  0  0  0  0  0  0  0  0  0  0  0
   -4.9422    2.4845   41.1581 C   0  0  0  0  0  0  0  0  0  0  0  0
   -3.9807    1.6572   40.5702 C   0  0  0  0  0  0  0  0  0  0  0  0
   -2.8635    2.1864   39.9282 C   0  0  0  0  0  0  0  0  0  0  0  0
   -2.7374    3.5694   39.8923 C   0  0  0  0  0  0  0  0  0  0  0  0
   -3.7029    4.3973   40.4824 C   0  0  0  0  0  0  0  0  0  0  0  0
   -7.2934    4.9066   39.5505 C   0  0  0  0  0  0  0  0  0  0  0  0
   -8.6980    4.9727   38.9322 C   0  0  0  0  0  0  0  0  0  0  0  0
   -9.1367    6.1032   38.2922 C   0  0  0  0  0  0  0  0  0  0  0  0
  -10.3999    6.2182   37.7082 C   0  0  0  0  0  0  0  0  0  0  0  0
  -11.2993    5.1546   37.7582 C   0  0  0  0  0  0  0  0  0  0  0  0
  -12.6808    5.3117   37.1100 C   0  0  0  0  0  0  0  0  0  0  0  0
  -10.8961    3.9650   38.4082 C   0  0  0  0  0  0  0  0  0  0  0  0
   -9.6104    3.8806   38.9873 C   0  0  0  0  0  0  0  0  0  0  0  0
   -9.2246    2.5525   39.6838 C   0  0  0  0  0  0  0  0  0  0  0  0
  -12.9205    6.4667   36.5045 F   0  0  0  0  0  0  0  0  0  0  0  0
  -13.7310    5.1764   37.9822 F   0  0  0  0  0  0  0  0  0  0  0  0
  -12.9764    4.3739   36.1732 F   0  0  0  0  0  0  0  0  0  0  0  0
   -8.1494    1.9327   39.1450 F   0  0  0  0  0  0  0  0  0  0  0  0
   -8.8777    2.7445   40.9761 F   0  0  0  0  0  0  0  0  0  0  0  0
  -10.1562    1.5879   39.7352 F   0  0  0  0  0  0  0  0  0  0  0  0
  1  2  2  0  0  0  0
  2  3  1  0  0  0  0
  3  4  1  0  0  0  0
  4  5  1  0  0  0  0
  5  6  3  0  0  0  0
  6  7  1  0  0  0  0
  7  8  1  0  0  0  0
  8  9  2  0  0  0  0
  9 10  1  0  0  0  0
 10 11  2  0  0  0  0
  7 12  2  0  0  0  0
 11 12  1  0  0  0  0
  3 13  1  0  0  0  0
 13 14  1  0  0  0  0
 14 15  2  0  0  0  0
 15 16  1  0  0  0  0
 16 17  2  0  0  0  0
 13 18  2  0  0  0  0
 17 18  1  0  0  0  0
  2 19  1  0  0  0  0
 19 20  1  0  0  0  0
 20 21  2  0  0  0  0
 21 22  1  0  0  0  0
 22 23  2  0  0  0  0
 23 24  1  0  0  0  0
 23 25  1  0  0  0  0
 20 26  1  0  0  0  0
 25 26  2  0  0  0  0
 26 27  1  0  0  0  0
 24 28  1  0  0  0  0
 24 29  1  0  0  0  0
 24 30  1  0  0  0  0
 27 31  1  0  0  0  0
 27 32  1  0  0  0  0
 27 33  1  0  0  0  0
 34 35  2  0  0  0  0
 35 36  1  0  0  0  0
 36 37  1  0  0  0  0
 37 38  1  0  0  0  0
 38 39  3  0  0  0  0
 39 40  1  0  0  0  0
 40 41  1  0  0  0  0
 41 42  2  0  0  0  0
 42 43  1  0  0  0  0
 43 44  2  0  0  0  0
 40 45  2  0  0  0  0
 44 45  1  0  0  0  0
 36 46  1  0  0  0  0
 46 47  1  0  0  0  0
 47 48  2  0  0  0  0
 48 49  1  0  0  0  0
 49 50  2  0  0  0  0
 46 51  2  0  0  0  0
 50 51  1  0  0  0  0
 35 52  1  0  0  0  0
 52 53  1  0  0  0  0
 53 54  2  0  0  0  0
 54 55  1  0  0  0  0
 55 56  2  0  0  0  0
 56 57  1  0  0  0  0
 56 58  1  0  0  0  0
 53 59  1  0  0  0  0
 58 59  2  0  0  0  0
 59 60  1  0  0  0  0
 57 61  1  0  0  0  0
 57 62  1  0  0  0  0
 57 63  1  0  0  0  0
 60 64  1  0  0  0  0
 60 65  1  0  0  0  0
 60 66  1  0  0  0  0
M  END
$$$$
