9EO4
  PyMOL3.1          3D                             0

 43 45  0  0  0  0  0  0  0  0999 V2000
  133.5070  123.9330  125.9270 C   0  0  0  0  0  0  0  0  0  0  0  0
  129.7720  125.3530  126.9930 O   0  0  0  0  0  0  0  0  0  0  0  0
  129.0470  124.1790  126.9080 C   0  0  0  0  0  0  0  0  0  0  0  0
  128.3250  124.0790  125.8920 O   0  0  0  0  0  0  0  0  0  0  0  0
  129.0850  123.0650  127.9380 C   0  0  0  0  0  0  0  0  0  0  0  0
  128.4110  121.8480  127.6930 C   0  0  0  0  0  0  0  0  0  0  0  0
  132.6550  124.6130  125.0140 O   0  0  0  0  0  0  0  0  0  0  0  0
  132.1550  125.8200  125.4230 C   0  0  0  0  0  0  0  0  0  0  0  0
  128.4260  120.7980  128.6320 C   0  0  0  0  0  0  0  0  0  0  0  0
  132.9030  126.3970  126.2340 O   0  0  0  0  0  0  0  0  0  0  0  0
  130.8100  126.3730  124.9200 C   0  0  0  0  0  0  0  0  0  0  0  0
  129.1260  120.9480  129.8520 C   0  0  0  0  0  0  0  0  0  0  0  0
  131.0210  127.8140  124.2970 C   0  0  0  0  0  0  0  0  0  0  0  0
  129.8020  122.1480  130.1070 C   0  0  0  0  0  0  0  0  0  0  0  0
  131.3090  128.8170  125.2990 N   0  0  0  0  0  0  0  0  0  0  0  0
  129.7760  123.1950  129.1610 C   0  0  0  0  0  0  0  0  0  0  0  0
  131.8050  130.0680  124.6670 C   0  0  0  0  0  0  0  0  0  0  0  0
  129.7210  128.3780  123.6190 C   0  0  0  0  0  0  0  0  0  0  0  0
  129.0760  129.2690  124.7470 C   0  0  0  0  0  0  0  0  0  0  0  0
  130.0440  129.0510  125.9310 C   0  0  0  0  0  0  0  0  0  0  0  0
  129.6180  127.8300  126.8080 C   0  0  0  0  0  0  0  0  0  0  0  0
  129.6510  126.4360  126.0430 C   0  0  0  0  0  0  0  0  0  0  0  0
  134.4910  124.3970  126.0580 H   0  0  0  0  0  0  0  0  0  0  0  0
  133.0490  123.8680  126.9390 H   0  0  0  0  0  0  0  0  0  0  0  0
  133.6360  122.8900  125.5950 H   0  0  0  0  0  0  0  0  0  0  0  0
  127.8450  121.6910  126.7420 H   0  0  0  0  0  0  0  0  0  0  0  0
  127.8930  119.8410  128.4330 H   0  0  0  0  0  0  0  0  0  0  0  0
  130.4910  125.7670  124.0520 H   0  0  0  0  0  0  0  0  0  0  0  0
  129.1460  120.1300  130.5970 H   0  0  0  0  0  0  0  0  0  0  0  0
  131.9220  127.8420  123.6250 H   0  0  0  0  0  0  0  0  0  0  0  0
  130.3550  122.2620  131.0770 H   0  0  0  0  0  0  0  0  0  0  0  0
  130.3210  124.1230  129.4050 H   0  0  0  0  0  0  0  0  0  0  0  0
  131.1950  130.9550  124.8970 H   0  0  0  0  0  0  0  0  0  0  0  0
  131.7950  129.9820  123.5700 H   0  0  0  0  0  0  0  0  0  0  0  0
  132.8210  130.2270  125.0550 H   0  0  0  0  0  0  0  0  0  0  0  0
  129.0510  127.5770  123.2670 H   0  0  0  0  0  0  0  0  0  0  0  0
  129.9200  128.9870  122.7000 H   0  0  0  0  0  0  0  0  0  0  0  0
  128.9970  130.3350  124.4360 H   0  0  0  0  0  0  0  0  0  0  0  0
  128.0490  128.9650  125.0030 H   0  0  0  0  0  0  0  0  0  0  0  0
  130.2290  129.9790  126.5660 H   0  0  0  0  0  0  0  0  0  0  0  0
  128.6190  128.0820  127.1870 H   0  0  0  0  0  0  0  0  0  0  0  0
  130.2760  127.7920  127.7160 H   0  0  0  0  0  0  0  0  0  0  0  0
  128.6820  126.2870  125.5090 H   0  0  0  0  0  0  0  0  0  0  0  0
  2  3  1  0  0  0  0
  3  4  2  0  0  0  0
  3  5  1  0  0  0  0
  5  6  2  0  0  0  0
  1  7  1  0  0  0  0
  7  8  1  0  0  0  0
  6  9  1  0  0  0  0
  8 10  2  0  0  0  0
  8 11  1  0  0  0  0
  9 12  2  0  0  0  0
 11 13  1  0  0  0  0
 12 14  1  0  0  0  0
 13 15  1  0  0  0  0
  5 16  1  0  0  0  0
 14 16  2  0  0  0  0
 15 17  1  0  0  0  0
 13 18  1  0  0  0  0
 18 19  1  0  0  0  0
 15 20  1  0  0  0  0
 19 20  1  0  0  0  0
 20 21  1  0  0  0  0
  2 22  1  0  0  0  0
 11 22  1  0  0  0  0
 21 22  1  0  0  0  0
  1 23  1  0  0  0  0
  1 24  1  0  0  0  0
  1 25  1  0  0  0  0
  6 26  1  0  0  0  0
  9 27  1  0  0  0  0
 11 28  1  0  0  0  0
 12 29  1  0  0  0  0
 13 30  1  0  0  0  0
 14 31  1  0  0  0  0
 16 32  1  0  0  0  0
 17 33  1  0  0  0  0
 17 34  1  0  0  0  0
 17 35  1  0  0  0  0
 18 36  1  0  0  0  0
 18 37  1  0  0  0  0
 19 38  1  0  0  0  0
 19 39  1  0  0  0  0
 20 40  1  0  0  0  0
 21 41  1  0  0  0  0
 21 42  1  0  0  0  0
 22 43  1  0  0  0  0
M  END
$$$$
