8P41
  PyMOL3.1          3D                             0

 60 62  0  0  0  0  0  0  0  0999 V2000
   59.4770   35.5970   -7.1030 Cl  0  0  0  0  0  0  0  0  0  0  0  0
   62.9170   35.6030   -3.1150 O   0  0  0  0  0  0  0  0  0  0  0  0
   61.8180   35.4990   -2.5130 C   0  0  0  0  0  0  0  0  0  0  0  0
   61.6240   35.5680   -1.2750 O   0  0  0  0  0  0  0  0  0  0  0  0
   60.6140   35.2600   -3.3220 C   0  0  0  0  0  0  0  0  0  0  0  0
   60.6260   35.5160   -4.6740 C   0  0  0  0  0  0  0  0  0  0  0  0
   59.4880   35.2850   -5.4070 C   0  0  0  0  0  0  0  0  0  0  0  0
   58.3490   34.8030   -4.8080 C   0  0  0  0  0  0  0  0  0  0  0  0
   58.3410   34.5490   -3.4590 C   0  0  0  0  0  0  0  0  0  0  0  0
   59.4740   34.7790   -2.7170 C   0  0  0  0  0  0  0  0  0  0  0  0
   59.4560   34.5180   -1.3350 N   0  0  0  0  0  0  0  0  0  0  0  0
   58.2990   34.0990   -0.7120 C   0  0  0  0  0  0  0  0  0  0  0  0
   57.1740   34.5170   -0.9280 O   0  0  0  0  0  0  0  0  0  0  0  0
   58.5200   33.0140    0.2940 C   0  0  0  0  0  0  0  0  0  0  0  0
   60.0410   33.2990    1.2210 S   0  0  0  0  0  0  0  0  0  0  0  0
   61.0600   32.0610    0.3950 C   0  0  0  0  0  0  0  0  0  0  0  0
   60.9820   30.6920    0.9790 C   0  0  0  0  0  0  0  0  0  0  0  0
   60.3720   29.6970    0.2560 C   0  0  0  0  0  0  0  0  0  0  0  0
   60.2910   28.4230    0.7570 C   0  0  0  0  0  0  0  0  0  0  0  0
   60.8250   28.1420    1.9890 C   0  0  0  0  0  0  0  0  0  0  0  0
   61.4380   29.1270    2.7240 C   0  0  0  0  0  0  0  0  0  0  0  0
   61.5160   30.4020    2.2140 C   0  0  0  0  0  0  0  0  0  0  0  0
   62.0110   28.7880    4.0600 C   0  0  0  0  0  0  0  0  0  0  0  0
   59.6300   27.3540   -0.0360 C   0  0  0  0  0  0  0  0  0  0  0  0
   61.2830   29.2670    5.1000 F   0  0  0  0  0  0  0  0  0  0  0  0
   62.0970   27.4480    4.2660 F   0  0  0  0  0  0  0  0  0  0  0  0
   63.2740   29.2540    4.2330 F   0  0  0  0  0  0  0  0  0  0  0  0
   60.3770   26.9850   -1.1050 F   0  0  0  0  0  0  0  0  0  0  0  0
   59.4240   26.2220    0.6800 F   0  0  0  0  0  0  0  0  0  0  0  0
   58.4170   27.7080   -0.5270 F   0  0  0  0  0  0  0  0  0  0  0  0
   62.9140   36.7740   -8.7730 Cl  0  0  0  0  0  0  0  0  0  0  0  0
   58.3820   37.5750  -11.2220 O   0  0  0  0  0  0  0  0  0  0  0  0
   58.7180   38.7700  -10.9840 C   0  0  0  0  0  0  0  0  0  0  0  0
   58.0960   39.7830  -11.4200 O   0  0  0  0  0  0  0  0  0  0  0  0
   59.9660   39.0050  -10.1770 C   0  0  0  0  0  0  0  0  0  0  0  0
   60.7950   37.9600   -9.8430 C   0  0  0  0  0  0  0  0  0  0  0  0
   61.9470   38.1700   -9.1190 C   0  0  0  0  0  0  0  0  0  0  0  0
   62.3170   39.4360   -8.6990 C   0  0  0  0  0  0  0  0  0  0  0  0
   61.4890   40.4910   -9.0290 C   0  0  0  0  0  0  0  0  0  0  0  0
   60.3350   40.2650   -9.7570 C   0  0  0  0  0  0  0  0  0  0  0  0
   59.4720   41.3000  -10.1190 N   0  0  0  0  0  0  0  0  0  0  0  0
   59.6060   42.5910   -9.6910 C   0  0  0  0  0  0  0  0  0  0  0  0
   60.4650   43.0060   -8.9210 O   0  0  0  0  0  0  0  0  0  0  0  0
   58.5340   43.4410  -10.3090 C   0  0  0  0  0  0  0  0  0  0  0  0
   57.0740   43.5600   -9.2210 S   0  0  0  0  0  0  0  0  0  0  0  0
   56.2720   41.9930   -9.7220 C   0  0  0  0  0  0  0  0  0  0  0  0
   56.5290   40.8000   -8.8400 C   0  0  0  0  0  0  0  0  0  0  0  0
   55.8810   39.5980   -9.0550 C   0  0  0  0  0  0  0  0  0  0  0  0
   56.1300   38.5040   -8.2520 C   0  0  0  0  0  0  0  0  0  0  0  0
   57.0240   38.6060   -7.2160 C   0  0  0  0  0  0  0  0  0  0  0  0
   57.6640   39.7960   -7.0060 C   0  0  0  0  0  0  0  0  0  0  0  0
   57.4240   40.8920   -7.8010 C   0  0  0  0  0  0  0  0  0  0  0  0
   58.6190   39.8990   -5.8850 C   0  0  0  0  0  0  0  0  0  0  0  0
   55.4450   37.1980   -8.4550 C   0  0  0  0  0  0  0  0  0  0  0  0
   58.1450   40.8530   -5.0290 F   0  0  0  0  0  0  0  0  0  0  0  0
   58.7610   38.7180   -5.1940 F   0  0  0  0  0  0  0  0  0  0  0  0
   59.8680   40.2790   -6.2630 F   0  0  0  0  0  0  0  0  0  0  0  0
   54.2220   37.2260   -7.8560 F   0  0  0  0  0  0  0  0  0  0  0  0
   55.2180   36.9200   -9.7620 F   0  0  0  0  0  0  0  0  0  0  0  0
   56.1260   36.1100   -7.9670 F   0  0  0  0  0  0  0  0  0  0  0  0
  2  3  2  0  0  0  0
  3  4  1  0  0  0  0
  3  5  1  0  0  0  0
  5  6  2  0  0  0  0
  1  7  1  0  0  0  0
  6  7  1  0  0  0  0
  7  8  2  0  0  0  0
  8  9  1  0  0  0  0
  5 10  1  0  0  0  0
  9 10  2  0  0  0  0
 10 11  1  0  0  0  0
 11 12  1  0  0  0  0
 12 13  2  0  0  0  0
 12 14  1  0  0  0  0
 14 15  1  0  0  0  0
 15 16  1  0  0  0  0
 16 17  1  0  0  0  0
 17 18  1  0  0  0  0
 18 19  2  0  0  0  0
 19 20  1  0  0  0  0
 20 21  2  0  0  0  0
 17 22  2  0  0  0  0
 21 22  1  0  0  0  0
 21 23  1  0  0  0  0
 19 24  1  0  0  0  0
 23 25  1  0  0  0  0
 23 26  1  0  0  0  0
 23 27  1  0  0  0  0
 24 28  1  0  0  0  0
 24 29  1  0  0  0  0
 24 30  1  0  0  0  0
 32 33  2  0  0  0  0
 33 34  1  0  0  0  0
 33 35  1  0  0  0  0
 35 36  2  0  0  0  0
 31 37  1  0  0  0  0
 36 37  1  0  0  0  0
 37 38  2  0  0  0  0
 38 39  1  0  0  0  0
 35 40  1  0  0  0  0
 39 40  2  0  0  0  0
 40 41  1  0  0  0  0
 41 42  1  0  0  0  0
 42 43  2  0  0  0  0
 42 44  1  0  0  0  0
 44 45  1  0  0  0  0
 45 46  1  0  0  0  0
 46 47  1  0  0  0  0
 47 48  1  0  0  0  0
 48 49  2  0  0  0  0
 49 50  1  0  0  0  0
 50 51  2  0  0  0  0
 47 52  2  0  0  0  0
 51 52  1  0  0  0  0
 51 53  1  0  0  0  0
 49 54  1  0  0  0  0
 53 55  1  0  0  0  0
 53 56  1  0  0  0  0
 53 57  1  0  0  0  0
 54 58  1  0  0  0  0
 54 59  1  0  0  0  0
 54 60  1  0  0  0  0
M  END
$$$$
