8OUO
  PyMOL3.1          3D                             0

 34 38  0  0  0  0  0  0  0  0999 V2000
  113.1700   97.8510  104.2990 C   0  0  0  0  0  0  0  0  0  0  0  0
  113.5590   97.9460  102.8920 N   0  0  0  0  0  0  0  0  0  0  0  0
  119.8560  100.5870  106.3700 O   0  0  0  0  0  0  0  0  0  0  0  0
  112.6530   98.8260  102.1530 C   0  0  0  0  0  0  0  0  0  0  0  0
  116.4940   98.5220   97.2810 O   0  0  0  0  0  0  0  0  0  0  0  0
  112.8860   98.7680  100.6550 C   0  0  0  0  0  0  0  0  0  0  0  0
  118.3570   98.1980   99.1560 O   0  0  0  0  0  0  0  0  0  0  0  0
  114.9430   98.4170  102.7450 C   0  0  0  0  0  0  0  0  0  0  0  0
  115.9390   97.5700  103.5710 C   0  0  0  0  0  0  0  0  0  0  0  0
  116.9910   98.3630  104.3000 C   0  0  0  0  0  0  0  0  0  0  0  0
  116.7580   98.8520  105.5780 C   0  0  0  0  0  0  0  0  0  0  0  0
  117.7150   99.5880  106.2560 C   0  0  0  0  0  0  0  0  0  0  0  0
  118.9310   99.8310  105.6560 C   0  0  0  0  0  0  0  0  0  0  0  0
  121.1750  100.7520  105.9540 C   0  0  0  0  0  0  0  0  0  0  0  0
  121.9920   99.6710  105.7100 C   0  0  0  0  0  0  0  0  0  0  0  0
  123.2940   99.8930  105.2960 C   0  0  0  0  0  0  0  0  0  0  0  0
  123.7670  101.1740  105.1290 C   0  0  0  0  0  0  0  0  0  0  0  0
  122.9370  102.2420  105.3750 C   0  0  0  0  0  0  0  0  0  0  0  0
  121.6320  102.0390  105.7900 C   0  0  0  0  0  0  0  0  0  0  0  0
  119.1860   99.3760  104.3810 C   0  0  0  0  0  0  0  0  0  0  0  0
  118.2200   98.6380  103.7170 C   0  0  0  0  0  0  0  0  0  0  0  0
  115.3180   98.4450  101.2710 C   0  0  0  0  0  0  0  0  0  0  0  0
  114.3430   98.6200  100.2950 C   0  0  0  0  0  0  0  0  0  0  0  0
  114.7280   98.6470   98.9490 C   0  0  0  0  0  0  0  0  0  0  0  0
  116.0450   98.5050   98.5740 C   0  0  0  0  0  0  0  0  0  0  0  0
  115.5410   98.8360   96.2710 C   0  0  0  0  0  0  0  0  0  0  0  0
  117.0300   98.3150   99.5570 C   0  0  0  0  0  0  0  0  0  0  0  0
  119.3150   97.5170   99.9020 C   0  0  0  0  0  0  0  0  0  0  0  0
  120.5700   98.0720   99.9900 C   0  0  0  0  0  0  0  0  0  0  0  0
  121.5490   97.4110  100.7120 C   0  0  0  0  0  0  0  0  0  0  0  0
  121.2820   96.2010  101.3080 C   0  0  0  0  0  0  0  0  0  0  0  0
  120.0300   95.6470  101.1890 C   0  0  0  0  0  0  0  0  0  0  0  0
  119.0380   96.2940  100.4710 C   0  0  0  0  0  0  0  0  0  0  0  0
  116.6600   98.3090  100.8900 C   0  0  0  0  0  0  0  0  0  0  0  0
  1  2  1  0  0  0  0
  2  4  1  0  0  0  0
  4  6  1  0  0  0  0
  2  8  1  0  0  0  0
  8  9  1  0  0  0  0
  9 10  1  0  0  0  0
 10 11  1  0  0  0  0
 11 12  2  0  0  0  0
  3 13  1  0  0  0  0
 12 13  1  0  0  0  0
  3 14  1  0  0  0  0
 14 15  2  0  0  0  0
 15 16  1  0  0  0  0
 16 17  2  0  0  0  0
 17 18  1  0  0  0  0
 14 19  1  0  0  0  0
 18 19  2  0  0  0  0
 13 20  2  0  0  0  0
 10 21  2  0  0  0  0
 20 21  1  0  0  0  0
  8 22  1  0  0  0  0
  6 23  1  0  0  0  0
 22 23  2  0  0  0  0
 23 24  1  0  0  0  0
  5 25  1  0  0  0  0
 24 25  2  0  0  0  0
  5 26  1  0  0  0  0
  7 27  1  0  0  0  0
 25 27  1  0  0  0  0
  7 28  1  0  0  0  0
 28 29  2  0  0  0  0
 29 30  1  0  0  0  0
 30 31  2  0  0  0  0
 31 32  1  0  0  0  0
 28 33  1  0  0  0  0
 32 33  2  0  0  0  0
 22 34  1  0  0  0  0
 27 34  2  0  0  0  0
M  END
$$$$
