8W88
  PyMOL3.1          3D                             0

 12 13  0  0  0  0  0  0  0  0999 V2000
   98.1610  104.6230   75.3060 C   0  0  0  0  0  0  0  0  0  0  0  0
   99.0370  104.9790   74.2090 N   0  0  0  0  0  0  0  0  0  0  0  0
  100.4950  104.7620   72.0220 O   0  0  0  0  0  0  0  0  0  0  0  0
  103.1080  102.7040   74.3440 S   0  0  0  0  0  0  0  0  0  0  0  0
  100.2560  104.2200   74.3590 C   0  0  0  0  0  0  0  0  0  0  0  0
  101.2420  104.5690   73.2230 C   0  0  0  0  0  0  0  0  0  0  0  0
  101.3560  104.8090   70.8460 C   0  0  0  0  0  0  0  0  0  0  0  0
  102.2540  103.5980   70.7250 C   0  0  0  0  0  0  0  0  0  0  0  0
  102.8240  103.0160   71.9770 C   0  0  0  0  0  0  0  0  0  0  0  0
  103.9520  101.8970   72.2540 C   0  0  0  0  0  0  0  0  0  0  0  0
  104.0860  101.7480   73.6680 C   0  0  0  0  0  0  0  0  0  0  0  0
  102.3460  103.4710   73.2140 C   0  0  0  0  0  0  0  0  0  0  0  0
  1  2  1  0  0  0  0
  2  5  1  0  0  0  0
  3  6  1  0  0  0  0
  5  6  1  0  0  0  0
  3  7  1  0  0  0  0
  7  8  1  0  0  0  0
  8  9  1  0  0  0  0
  9 10  1  0  0  0  0
  4 11  1  0  0  0  0
 10 11  2  0  0  0  0
  4 12  1  0  0  0  0
  6 12  1  0  0  0  0
  9 12  2  0  0  0  0
M  END
$$$$
