9B4G
  PyMOL3.1          3D                             0

 45 50  0  0  0  0  0  0  0  0999 V2000
  115.5620  143.0480   95.8750 O   0  0  0  0  0  0  0  0  0  0  0  0
  116.1970  142.1680   96.3340 C   0  0  0  0  0  0  0  0  0  0  0  0
  117.0020  142.2450   97.4750 O   0  0  0  0  0  0  0  0  0  0  0  0
  117.6020  140.9450   97.6860 C   0  0  0  0  0  0  0  0  0  0  0  0
  118.4670  140.4700   98.6820 C   0  0  0  0  0  0  0  0  0  0  0  0
  118.9450  141.4570   99.7330 C   0  0  0  0  0  0  0  0  0  0  0  0
  118.3650  142.6390  100.0090 N   0  0  0  0  0  0  0  0  0  0  0  0
  119.1170  143.2500  100.9740 N   0  0  0  0  0  0  0  0  0  0  0  0
  120.1470  142.4890  101.2940 C   0  0  0  0  0  0  0  0  0  0  0  0
  120.0960  141.3510  100.5350 C   0  0  0  0  0  0  0  0  0  0  0  0
  121.2860  140.4630  100.9240 C   0  0  0  0  0  0  0  0  0  0  0  0
  120.7720  139.2550  101.6860 C   0  0  0  0  0  0  0  0  0  0  0  0
  121.1180  137.9530  101.3570 C   0  0  0  0  0  0  0  0  0  0  0  0
  120.6280  136.8960  102.1130 C   0  0  0  0  0  0  0  0  0  0  0  0
  119.7990  137.1500  103.1920 C   0  0  0  0  0  0  0  0  0  0  0  0
  119.2470  136.1640  104.0220 O   0  0  0  0  0  0  0  0  0  0  0  0
  119.4110  134.8200  103.6730 C   0  0  0  0  0  0  0  0  0  0  0  0
  120.2230  134.0200  104.4600 C   0  0  0  0  0  0  0  0  0  0  0  0
  120.3800  132.6800  104.1540 C   0  0  0  0  0  0  0  0  0  0  0  0
  121.2770  131.7900  105.0050 C   0  0  0  0  0  0  0  0  0  0  0  0
  119.7160  132.1410  103.0690 C   0  0  0  0  0  0  0  0  0  0  0  0
  118.8960  132.9380  102.2960 C   0  0  0  0  0  0  0  0  0  0  0  0
  118.1690  132.3220  101.1130 C   0  0  0  0  0  0  0  0  0  0  0  0
  118.7310  134.2740  102.5980 C   0  0  0  0  0  0  0  0  0  0  0  0
  119.4640  138.4470  103.5150 C   0  0  0  0  0  0  0  0  0  0  0  0
  119.9520  139.4940  102.7680 C   0  0  0  0  0  0  0  0  0  0  0  0
  122.0470  141.1660  101.9060 N   0  0  0  0  0  0  0  0  0  0  0  0
  123.2440  140.6810  102.5600 C   0  0  0  0  0  0  0  0  0  0  0  0
  124.3610  140.4360  101.5620 C   0  0  0  0  0  0  0  0  0  0  0  0
  125.6980  140.7190  102.2260 C   0  0  0  0  0  0  0  0  0  0  0  0
  121.3800  142.4070  102.1960 C   0  0  0  0  0  0  0  0  0  0  0  0
  121.7200  143.2240  102.9780 O   0  0  0  0  0  0  0  0  0  0  0  0
  118.9180  139.1540   98.6490 C   0  0  0  0  0  0  0  0  0  0  0  0
  118.4710  138.2970   97.6340 C   0  0  0  0  0  0  0  0  0  0  0  0
  117.5990  138.7630   96.6580 C   0  0  0  0  0  0  0  0  0  0  0  0
  117.1630  140.0980   96.6870 C   0  0  0  0  0  0  0  0  0  0  0  0
  116.2810  140.8470   95.8320 N   0  0  0  0  0  0  0  0  0  0  0  0
  121.7360  130.7440  104.2610 F   0  0  0  0  0  0  0  0  0  0  0  0
  122.3270  132.5180  105.4670 F   0  0  0  0  0  0  0  0  0  0  0  0
  120.5620  131.3160  106.0610 F   0  0  0  0  0  0  0  0  0  0  0  0
  117.5030  133.2950  100.4320 F   0  0  0  0  0  0  0  0  0  0  0  0
  117.2710  131.4100  101.5790 F   0  0  0  0  0  0  0  0  0  0  0  0
  119.0830  131.7070  100.3090 F   0  0  0  0  0  0  0  0  0  0  0  0
  124.3420  139.1360  101.1700 F   0  0  0  0  0  0  0  0  0  0  0  0
  124.1930  141.2440  100.4830 F   0  0  0  0  0  0  0  0  0  0  0  0
  1  2  2  0  0  0  0
  2  3  1  0  0  0  0
  3  4  1  0  0  0  0
  4  5  2  0  0  0  0
  5  6  1  0  0  0  0
  6  7  2  0  0  0  0
  7  8  1  0  0  0  0
  8  9  1  0  0  0  0
  6 10  1  0  0  0  0
  9 10  2  0  0  0  0
 10 11  1  0  0  0  0
 11 12  1  0  0  0  0
 12 13  2  0  0  0  0
 13 14  1  0  0  0  0
 14 15  2  0  0  0  0
 15 16  1  0  0  0  0
 16 17  1  0  0  0  0
 17 18  2  0  0  0  0
 18 19  1  0  0  0  0
 19 20  1  0  0  0  0
 19 21  2  0  0  0  0
 21 22  1  0  0  0  0
 22 23  1  0  0  0  0
 17 24  1  0  0  0  0
 22 24  2  0  0  0  0
 15 25  1  0  0  0  0
 12 26  1  0  0  0  0
 25 26  2  0  0  0  0
 11 27  1  0  0  0  0
 27 28  1  0  0  0  0
 28 29  1  0  0  0  0
 29 30  1  0  0  0  0
  9 31  1  0  0  0  0
 27 31  1  0  0  0  0
 31 32  2  0  0  0  0
  5 33  1  0  0  0  0
 33 34  2  0  0  0  0
 34 35  1  0  0  0  0
  4 36  1  0  0  0  0
 35 36  2  0  0  0  0
  2 37  1  0  0  0  0
 36 37  1  0  0  0  0
 20 38  1  0  0  0  0
 20 39  1  0  0  0  0
 20 40  1  0  0  0  0
 23 41  1  0  0  0  0
 23 42  1  0  0  0  0
 23 43  1  0  0  0  0
 29 44  1  0  0  0  0
 29 45  1  0  0  0  0
M  END
$$$$
