9B4G
  PyMOL3.1          3D                             0

 45 50  0  0  0  0  0  0  0  0999 V2000
  134.7260  107.2450   95.8730 O   0  0  0  0  0  0  0  0  0  0  0  0
  134.0910  108.1250   96.3330 C   0  0  0  0  0  0  0  0  0  0  0  0
  133.2860  108.0480   97.4740 O   0  0  0  0  0  0  0  0  0  0  0  0
  132.6860  109.3480   97.6850 C   0  0  0  0  0  0  0  0  0  0  0  0
  131.8210  109.8230   98.6810 C   0  0  0  0  0  0  0  0  0  0  0  0
  131.3430  108.8360   99.7320 C   0  0  0  0  0  0  0  0  0  0  0  0
  131.9230  107.6540  100.0080 N   0  0  0  0  0  0  0  0  0  0  0  0
  131.1710  107.0430  100.9730 N   0  0  0  0  0  0  0  0  0  0  0  0
  130.1410  107.8040  101.2930 C   0  0  0  0  0  0  0  0  0  0  0  0
  130.1920  108.9420  100.5340 C   0  0  0  0  0  0  0  0  0  0  0  0
  129.0020  109.8300  100.9230 C   0  0  0  0  0  0  0  0  0  0  0  0
  129.5160  111.0380  101.6860 C   0  0  0  0  0  0  0  0  0  0  0  0
  129.1710  112.3400  101.3570 C   0  0  0  0  0  0  0  0  0  0  0  0
  129.6610  113.3960  102.1130 C   0  0  0  0  0  0  0  0  0  0  0  0
  130.4900  113.1420  103.1920 C   0  0  0  0  0  0  0  0  0  0  0  0
  131.0420  114.1280  104.0220 O   0  0  0  0  0  0  0  0  0  0  0  0
  130.8780  115.4720  103.6730 C   0  0  0  0  0  0  0  0  0  0  0  0
  130.0660  116.2720  104.4600 C   0  0  0  0  0  0  0  0  0  0  0  0
  129.9090  117.6120  104.1540 C   0  0  0  0  0  0  0  0  0  0  0  0
  129.0120  118.5020  105.0060 C   0  0  0  0  0  0  0  0  0  0  0  0
  130.5730  118.1510  103.0690 C   0  0  0  0  0  0  0  0  0  0  0  0
  131.3930  117.3540  102.2960 C   0  0  0  0  0  0  0  0  0  0  0  0
  132.1200  117.9700  101.1130 C   0  0  0  0  0  0  0  0  0  0  0  0
  131.5580  116.0180  102.5980 C   0  0  0  0  0  0  0  0  0  0  0  0
  130.8250  111.8450  103.5140 C   0  0  0  0  0  0  0  0  0  0  0  0
  130.3370  110.7980  102.7670 C   0  0  0  0  0  0  0  0  0  0  0  0
  128.2410  109.1270  101.9050 N   0  0  0  0  0  0  0  0  0  0  0  0
  127.0440  109.6120  102.5600 C   0  0  0  0  0  0  0  0  0  0  0  0
  125.9270  109.8570  101.5620 C   0  0  0  0  0  0  0  0  0  0  0  0
  124.5900  109.5740  102.2260 C   0  0  0  0  0  0  0  0  0  0  0  0
  128.9080  107.8860  102.1950 C   0  0  0  0  0  0  0  0  0  0  0  0
  128.5680  107.0680  102.9770 O   0  0  0  0  0  0  0  0  0  0  0  0
  131.3700  111.1390   98.6480 C   0  0  0  0  0  0  0  0  0  0  0  0
  131.8170  111.9960   97.6330 C   0  0  0  0  0  0  0  0  0  0  0  0
  132.6890  111.5300   96.6570 C   0  0  0  0  0  0  0  0  0  0  0  0
  133.1250  110.1950   96.6860 C   0  0  0  0  0  0  0  0  0  0  0  0
  134.0070  109.4460   95.8310 N   0  0  0  0  0  0  0  0  0  0  0  0
  128.5530  119.5480  104.2620 F   0  0  0  0  0  0  0  0  0  0  0  0
  127.9620  117.7740  105.4680 F   0  0  0  0  0  0  0  0  0  0  0  0
  129.7280  118.9760  106.0620 F   0  0  0  0  0  0  0  0  0  0  0  0
  132.7860  116.9970  100.4320 F   0  0  0  0  0  0  0  0  0  0  0  0
  133.0180  118.8820  101.5790 F   0  0  0  0  0  0  0  0  0  0  0  0
  131.2060  118.5860  100.3090 F   0  0  0  0  0  0  0  0  0  0  0  0
  125.9460  111.1570  101.1700 F   0  0  0  0  0  0  0  0  0  0  0  0
  126.0950  109.0490  100.4830 F   0  0  0  0  0  0  0  0  0  0  0  0
  1  2  2  0  0  0  0
  2  3  1  0  0  0  0
  3  4  1  0  0  0  0
  4  5  2  0  0  0  0
  5  6  1  0  0  0  0
  6  7  2  0  0  0  0
  7  8  1  0  0  0  0
  8  9  1  0  0  0  0
  6 10  1  0  0  0  0
  9 10  2  0  0  0  0
 10 11  1  0  0  0  0
 11 12  1  0  0  0  0
 12 13  2  0  0  0  0
 13 14  1  0  0  0  0
 14 15  2  0  0  0  0
 15 16  1  0  0  0  0
 16 17  1  0  0  0  0
 17 18  2  0  0  0  0
 18 19  1  0  0  0  0
 19 20  1  0  0  0  0
 19 21  2  0  0  0  0
 21 22  1  0  0  0  0
 22 23  1  0  0  0  0
 17 24  1  0  0  0  0
 22 24  2  0  0  0  0
 15 25  1  0  0  0  0
 12 26  1  0  0  0  0
 25 26  2  0  0  0  0
 11 27  1  0  0  0  0
 27 28  1  0  0  0  0
 28 29  1  0  0  0  0
 29 30  1  0  0  0  0
  9 31  1  0  0  0  0
 27 31  1  0  0  0  0
 31 32  2  0  0  0  0
  5 33  1  0  0  0  0
 33 34  2  0  0  0  0
 34 35  1  0  0  0  0
  4 36  1  0  0  0  0
 35 36  2  0  0  0  0
  2 37  1  0  0  0  0
 36 37  1  0  0  0  0
 20 38  1  0  0  0  0
 20 39  1  0  0  0  0
 20 40  1  0  0  0  0
 23 41  1  0  0  0  0
 23 42  1  0  0  0  0
 23 43  1  0  0  0  0
 29 44  1  0  0  0  0
 29 45  1  0  0  0  0
M  END
$$$$
