6S3A
  PyMOL3.1          3D                             0

 40 41  0  0  0  0  0  0  0  0999 V2000
   -6.8190  -24.7050   12.6020 C   0  0  0  0  0  0  0  0  0  0  0  0
   -6.2720  -23.2880   12.6870 C   0  0  0  0  0  0  0  0  0  0  0  0
   -7.0470  -22.4330   13.7110 C   0  0  0  0  0  0  0  0  0  0  0  0
   -6.0910  -25.5630   13.5290 N   0  0  0  0  0  0  0  0  0  0  0  0
   -8.3810  -22.8220   13.8750 O   0  0  0  0  0  0  0  0  0  0  0  0
   -8.8890  -22.4400   15.1280 C   0  0  0  0  0  0  0  0  0  0  0  0
   -8.0820  -21.5860   16.1180 C   0  0  0  0  0  0  0  0  0  0  0  0
   -8.5890  -21.2500   17.2760 C   0  0  0  0  0  0  0  0  0  0  0  0
   -9.9910  -21.7060   17.6260 C   0  0  0  0  0  0  0  0  0  0  0  0
  -10.6920  -22.4300   16.7810 C   0  0  0  0  0  0  0  0  0  0  0  0
  -10.0950  -22.8250   15.4460 C   0  0  0  0  0  0  0  0  0  0  0  0
  -10.5780  -21.3080   18.9590 C   0  0  0  0  0  0  0  0  0  0  0  0
   -6.8910  -20.9740   13.2300 C   0  0  0  0  0  0  0  0  0  0  0  0
   -7.7120  -20.4840   12.3240 C   0  0  0  0  0  0  0  0  0  0  0  0
   -7.5620  -19.0420   11.8350 C   0  0  0  0  0  0  0  0  0  0  0  0
   -6.6150  -18.2690   12.3120 C   0  0  0  0  0  0  0  0  0  0  0  0
   -5.6570  -18.8310   13.3550 C   0  0  0  0  0  0  0  0  0  0  0  0
   -5.7870  -20.0800   13.7740 C   0  0  0  0  0  0  0  0  0  0  0  0
   -4.6390  -25.4260   13.4510 C   0  0  0  0  0  0  0  0  0  0  0  0
  -10.2940  -19.9960   19.1510 F   0  0  0  0  0  0  0  0  0  0  0  0
  -10.0010  -22.0550   19.9340 F   0  0  0  0  0  0  0  0  0  0  0  0
  -11.9250  -21.4970   18.9430 F   0  0  0  0  0  0  0  0  0  0  0  0
   -7.7590  -24.7130   12.8210 H   0  0  0  0  0  0  0  0  0  0  0  0
   -6.3920  -22.8810   11.8150 H   0  0  0  0  0  0  0  0  0  0  0  0
   -6.5550  -22.5540   14.5340 H   0  0  0  0  0  0  0  0  0  0  0  0
   -7.2220  -21.3060   15.9040 H   0  0  0  0  0  0  0  0  0  0  0  0
   -8.0990  -20.7330   17.8730 H   0  0  0  0  0  0  0  0  0  0  0  0
  -11.5500  -22.7080   17.0050 H   0  0  0  0  0  0  0  0  0  0  0  0
  -10.5910  -23.3380   14.8490 H   0  0  0  0  0  0  0  0  0  0  0  0
   -8.3900  -21.0190   11.9790 H   0  0  0  0  0  0  0  0  0  0  0  0
   -8.1520  -18.7080   11.1990 H   0  0  0  0  0  0  0  0  0  0  0  0
   -6.5250  -17.3930   12.0130 H   0  0  0  0  0  0  0  0  0  0  0  0
   -4.9800  -18.2950   13.6990 H   0  0  0  0  0  0  0  0  0  0  0  0
   -5.2000  -20.4130   14.4130 H   0  0  0  0  0  0  0  0  0  0  0  0
   -4.3780  -25.2260   12.5380 H   0  0  0  0  0  0  0  0  0  0  0  0
   -6.7000  -25.0390   11.6990 H   0  0  0  0  0  0  0  0  0  0  0  0
   -5.3330  -23.2420   12.8990 H   0  0  0  0  0  0  0  0  0  0  0  0
   -6.3170  -26.4120   13.3870 H   0  0  0  0  0  0  0  0  0  0  0  0
   -4.2280  -26.2620   13.7210 H   0  0  0  0  0  0  0  0  0  0  0  0
   -4.3370  -24.7200   14.0430 H   0  0  0  0  0  0  0  0  0  0  0  0
  1  2  1  0  0  0  0
  2  3  1  0  0  0  0
  1  4  1  0  0  0  0
  3  5  1  0  0  0  0
  5  6  1  0  0  0  0
  6  7  1  0  0  0  0
  7  8  2  0  0  0  0
  8  9  1  0  0  0  0
  9 10  2  0  0  0  0
  6 11  2  0  0  0  0
 10 11  1  0  0  0  0
  9 12  1  0  0  0  0
  3 13  1  0  0  0  0
 13 14  2  0  0  0  0
 14 15  1  0  0  0  0
 15 16  2  0  0  0  0
 16 17  1  0  0  0  0
 13 18  1  0  0  0  0
 17 18  2  0  0  0  0
  4 19  1  0  0  0  0
 12 20  1  0  0  0  0
 12 21  1  0  0  0  0
 12 22  1  0  0  0  0
  1 23  1  0  0  0  0
  2 24  1  0  0  0  0
  3 25  1  0  0  0  0
  7 26  1  0  0  0  0
  8 27  1  0  0  0  0
 10 28  1  0  0  0  0
 11 29  1  0  0  0  0
 14 30  1  0  0  0  0
 15 31  1  0  0  0  0
 16 32  1  0  0  0  0
 17 33  1  0  0  0  0
 18 34  1  0  0  0  0
 19 35  1  0  0  0  0
  1 36  1  0  0  0  0
  2 37  1  0  0  0  0
  4 38  1  0  0  0  0
 19 39  1  0  0  0  0
 19 40  1  0  0  0  0
M  END
$$$$
