8JHY
  PyMOL3.1          3D                             0

 32 35  0  0  0  0  0  0  0  0999 V2000
  102.3600  122.4310  151.0160 C   0  0  0  0  0  0  0  0  0  0  0  0
  101.2570  123.3730  151.0930 C   0  0  0  0  0  0  0  0  0  0  0  0
  100.1500  122.6240  150.5890 N   0  0  0  0  0  0  0  0  0  0  0  0
  100.0710  122.2620  149.2610 C   0  0  0  0  0  0  0  0  0  0  0  0
  100.9840  122.5180  148.6940 O   0  0  0  0  0  0  0  0  0  0  0  0
   99.1270  121.4140  148.5280 C   0  0  0  0  0  0  0  0  0  0  0  0
   99.3680  121.0530  147.2330 C   0  0  0  0  0  0  0  0  0  0  0  0
   98.5840  120.2430  146.6540 N   0  0  0  0  0  0  0  0  0  0  0  0
   97.5600  119.7210  147.3230 C   0  0  0  0  0  0  0  0  0  0  0  0
   97.3560  120.0330  148.5320 N   0  0  0  0  0  0  0  0  0  0  0  0
   98.1260  120.8600  149.1500 C   0  0  0  0  0  0  0  0  0  0  0  0
   97.8270  121.2010  150.5470 C   0  0  0  0  0  0  0  0  0  0  0  0
   96.2560  119.4220  149.0190 N   0  0  0  0  0  0  0  0  0  0  0  0
   95.7790  118.7010  148.0520 C   0  0  0  0  0  0  0  0  0  0  0  0
   96.5430  118.8330  146.9230 C   0  0  0  0  0  0  0  0  0  0  0  0
   96.3520  118.1530  145.7130 C   0  0  0  0  0  0  0  0  0  0  0  0
   96.1570  116.8310  145.7820 C   0  0  0  0  0  0  0  0  0  0  0  0
   95.9810  116.0790  144.6800 C   0  0  0  0  0  0  0  0  0  0  0  0
   95.9980  116.5840  143.4560 C   0  0  0  0  0  0  0  0  0  0  0  0
   96.1840  117.9170  143.3900 C   0  0  0  0  0  0  0  0  0  0  0  0
   96.3930  118.6820  144.4840 C   0  0  0  0  0  0  0  0  0  0  0  0
   95.7430  115.6410  142.2660 C   0  0  0  0  0  0  0  0  0  0  0  0
   96.6390  115.5090  141.0770 C   0  0  0  0  0  0  0  0  0  0  0  0
   95.9200  114.2630  142.7270 C   0  0  0  0  0  0  0  0  0  0  0  0
  101.2130  123.6140  152.4990 C   0  0  0  0  0  0  0  0  0  0  0  0
  100.6000  122.6070  153.1030 O   0  0  0  0  0  0  0  0  0  0  0  0
   99.5340  122.9490  153.7980 C   0  0  0  0  0  0  0  0  0  0  0  0
   99.0530  124.1560  153.8800 C   0  0  0  0  0  0  0  0  0  0  0  0
   98.0300  124.4290  154.6650 C   0  0  0  0  0  0  0  0  0  0  0  0
   97.4780  123.4400  155.3560 C   0  0  0  0  0  0  0  0  0  0  0  0
   97.9890  122.2140  155.2760 C   0  0  0  0  0  0  0  0  0  0  0  0
   99.0180  122.0040  154.4840 C   0  0  0  0  0  0  0  0  0  0  0  0
  1  2  1  0  0  0  0
  2  3  1  0  0  0  0
  3  4  1  0  0  0  0
  4  5  2  0  0  0  0
  4  6  1  0  0  0  0
  6  7  1  0  0  0  0
  7  8  2  0  0  0  0
  8  9  1  0  0  0  0
  9 10  1  0  0  0  0
  6 11  2  0  0  0  0
 10 11  1  0  0  0  0
 11 12  1  0  0  0  0
 10 13  1  0  0  0  0
 13 14  2  0  0  0  0
  9 15  2  0  0  0  0
 14 15  1  0  0  0  0
 15 16  1  0  0  0  0
 16 17  1  0  0  0  0
 17 18  2  0  0  0  0
 18 19  1  0  0  0  0
 19 20  2  0  0  0  0
 16 21  2  0  0  0  0
 20 21  1  0  0  0  0
 19 22  1  0  0  0  0
 22 23  1  0  0  0  0
 22 24  1  0  0  0  0
  2 25  1  0  0  0  0
 25 26  1  0  0  0  0
 26 27  1  0  0  0  0
 27 28  2  0  0  0  0
 28 29  1  0  0  0  0
 29 30  2  0  0  0  0
 30 31  1  0  0  0  0
 27 32  1  0  0  0  0
 31 32  2  0  0  0  0
M  END
$$$$
