7WC9
  PyMOL3.1          3D                             0

 28 32  0  0  0  0  0  0  0  0999 V2000
  -25.9670  -13.2790  145.4460 C   0  0  0  0  0  0  0  0  0  0  0  0
  -26.5920  -12.8180  142.6080 N   0  0  0  0  0  0  0  0  0  0  0  0
  -30.2270  -12.1190  137.1590 O   0  0  0  0  0  0  0  0  0  0  0  0
  -25.1290  -13.8520  144.3220 C   0  0  0  0  0  0  0  0  0  0  0  0
  -26.8470  -14.3220  146.0030 N   0  0  0  0  0  0  0  0  0  0  0  0
  -25.9740  -14.0660  143.0760 C   0  0  0  0  0  0  0  0  0  0  0  0
  -28.5360  -15.4800  147.9520 N   0  0  0  0  0  0  0  0  0  0  0  0
  -27.2460  -13.0420  141.3110 C   0  0  0  0  0  0  0  0  0  0  0  0
  -27.4670  -11.7860  140.4790 C   0  0  0  0  0  0  0  0  0  0  0  0
  -27.5420  -12.2830  143.5830 C   0  0  0  0  0  0  0  0  0  0  0  0
  -26.9850  -12.1530  145.0070 C   0  0  0  0  0  0  0  0  0  0  0  0
  -28.0870  -12.3630  146.0230 C   0  0  0  0  0  0  0  0  0  0  0  0
  -29.1520  -11.5830  146.4460 C   0  0  0  0  0  0  0  0  0  0  0  0
  -30.0350  -12.1090  147.4210 C   0  0  0  0  0  0  0  0  0  0  0  0
  -29.8780  -13.3940  147.9440 C   0  0  0  0  0  0  0  0  0  0  0  0
  -28.8080  -14.1950  147.5100 C   0  0  0  0  0  0  0  0  0  0  0  0
  -27.9370  -13.6550  146.5430 C   0  0  0  0  0  0  0  0  0  0  0  0
  -26.3200  -15.3460  146.9040 C   0  0  0  0  0  0  0  0  0  0  0  0
  -27.4400  -16.2610  147.3550 C   0  0  0  0  0  0  0  0  0  0  0  0
  -29.3050  -16.1240  149.0170 C   0  0  0  0  0  0  0  0  0  0  0  0
  -28.3970  -12.0170  139.2690 C   0  0  0  0  0  0  0  0  0  0  0  0
  -29.8650  -11.7140  139.4600 C   0  0  0  0  0  0  0  0  0  0  0  0
  -30.3730  -11.3620  140.7050 C   0  0  0  0  0  0  0  0  0  0  0  0
  -31.7160  -11.0790  140.8920 C   0  0  0  0  0  0  0  0  0  0  0  0
  -32.5760  -11.1360  139.8280 C   0  0  0  0  0  0  0  0  0  0  0  0
  -32.1210  -11.5050  138.5770 C   0  0  0  0  0  0  0  0  0  0  0  0
  -30.7730  -11.7830  138.3820 C   0  0  0  0  0  0  0  0  0  0  0  0
  -30.9380  -11.8140  135.9510 C   0  0  0  0  0  0  0  0  0  0  0  0
  1  4  1  0  0  0  0
  1  5  1  0  0  0  0
  2  6  1  0  0  0  0
  4  6  1  0  0  0  0
  2  8  1  0  0  0  0
  8  9  1  0  0  0  0
  2 10  1  0  0  0  0
  1 11  1  0  0  0  0
 10 11  1  0  0  0  0
 11 12  1  0  0  0  0
 12 13  2  0  0  0  0
 13 14  1  0  0  0  0
 14 15  2  0  0  0  0
  7 16  1  0  0  0  0
 15 16  1  0  0  0  0
  5 17  1  0  0  0  0
 12 17  1  0  0  0  0
 16 17  2  0  0  0  0
  5 18  1  0  0  0  0
  7 19  1  0  0  0  0
 18 19  1  0  0  0  0
  7 20  1  0  0  0  0
  9 21  1  0  0  0  0
 21 22  1  0  0  0  0
 22 23  2  0  0  0  0
 23 24  1  0  0  0  0
 24 25  2  0  0  0  0
 25 26  1  0  0  0  0
  3 27  1  0  0  0  0
 22 27  1  0  0  0  0
 26 27  2  0  0  0  0
  3 28  1  0  0  0  0
M  END
$$$$
