7SIM
  PyMOL3.1          3D                             0

 16 18  0  0  0  0  0  0  0  0999 V2000
  224.4430  220.8490  272.3800 N   0  0  0  0  0  0  0  0  0  0  0  0
  224.4800  219.4070  272.5760 C   0  0  0  0  0  0  0  0  0  0  0  0
  223.1750  218.8720  273.0730 C   0  0  0  0  0  0  0  0  0  0  0  0
  225.5760  219.0130  273.5590 C   0  0  0  0  0  0  0  0  0  0  0  0
  226.8000  219.8010  273.2010 C   0  0  0  0  0  0  0  0  0  0  0  0
  226.8100  221.0090  272.3580 C   0  0  0  0  0  0  0  0  0  0  0  0
  228.2030  219.6030  273.5770 C   0  0  0  0  0  0  0  0  0  0  0  0
  228.9400  220.7030  272.9260 C   0  0  0  0  0  0  0  0  0  0  0  0
  228.8270  218.6450  274.3520 C   0  0  0  0  0  0  0  0  0  0  0  0
  228.0700  221.4700  272.2420 N   0  0  0  0  0  0  0  0  0  0  0  0
  230.3090  220.7510  273.1170 C   0  0  0  0  0  0  0  0  0  0  0  0
  230.2010  218.7520  274.5060 C   0  0  0  0  0  0  0  0  0  0  0  0
  230.9210  219.7800  273.9020 C   0  0  0  0  0  0  0  0  0  0  0  0
  223.1150  217.6740  273.4020 O   0  0  0  0  0  0  0  0  0  0  0  0
  222.2000  219.6410  273.1470 O   0  0  0  0  0  0  0  0  0  0  0  0
  225.5470  221.5550  271.7540 C   0  0  0  0  0  0  0  0  0  0  0  0
  1  2  1  0  0  0  0
  2  3  1  0  0  0  0
  2  4  1  0  0  0  0
  4  5  1  0  0  0  0
  5  6  2  0  0  0  0
  5  7  1  0  0  0  0
  7  8  2  0  0  0  0
  7  9  1  0  0  0  0
  6 10  1  0  0  0  0
  8 10  1  0  0  0  0
  8 11  1  0  0  0  0
  9 12  2  0  0  0  0
 11 13  2  0  0  0  0
 12 13  1  0  0  0  0
  3 14  1  0  0  0  0
  3 15  2  0  0  0  0
  1 16  1  0  0  0  0
  6 16  1  0  0  0  0
M  END
$$$$
