7SIM
  PyMOL3.1          3D                             0

 16 18  0  0  0  0  0  0  0  0999 V2000
  200.5040  204.1180  272.3840 N   0  0  0  0  0  0  0  0  0  0  0  0
  200.4650  205.5590  272.5800 C   0  0  0  0  0  0  0  0  0  0  0  0
  201.7710  206.0960  273.0780 C   0  0  0  0  0  0  0  0  0  0  0  0
  199.3710  205.9490  273.5660 C   0  0  0  0  0  0  0  0  0  0  0  0
  198.1470  205.1600  273.2080 C   0  0  0  0  0  0  0  0  0  0  0  0
  198.1380  203.9540  272.3640 C   0  0  0  0  0  0  0  0  0  0  0  0
  196.7430  205.3570  273.5840 C   0  0  0  0  0  0  0  0  0  0  0  0
  196.0070  204.2570  272.9330 C   0  0  0  0  0  0  0  0  0  0  0  0
  196.1160  206.3130  274.3600 C   0  0  0  0  0  0  0  0  0  0  0  0
  196.8780  203.4910  272.2470 N   0  0  0  0  0  0  0  0  0  0  0  0
  194.6390  204.2040  273.1210 C   0  0  0  0  0  0  0  0  0  0  0  0
  194.7410  206.2050  274.5130 C   0  0  0  0  0  0  0  0  0  0  0  0
  194.0240  205.1760  273.9070 C   0  0  0  0  0  0  0  0  0  0  0  0
  201.8300  207.2950  273.4010 O   0  0  0  0  0  0  0  0  0  0  0  0
  202.7460  205.3270  273.1560 O   0  0  0  0  0  0  0  0  0  0  0  0
  199.4020  203.4090  271.7600 C   0  0  0  0  0  0  0  0  0  0  0  0
  1  2  1  0  0  0  0
  1 16  1  0  0  0  0
  2  3  1  0  0  0  0
  2  4  1  0  0  0  0
  3 14  4  0  0  0  0
  3 15  4  0  0  0  0
  4  5  1  0  0  0  0
  5  6  4  0  0  0  0
  5  7  4  0  0  0  0
  6 10  4  0  0  0  0
  6 16  1  0  0  0  0
  7  8  4  0  0  0  0
  7  9  4  0  0  0  0
  8 10  4  0  0  0  0
  8 11  4  0  0  0  0
  9 12  4  0  0  0  0
 11 13  4  0  0  0  0
 12 13  4  0  0  0  0
M  END
$$$$
