6WFG
  PyMOL3.1          3D                             0

 72 74  0  0  0  0  0  0  0  0999 V2000
   23.2300   30.5030   25.6670 C   0  0  0  0  0  0  0  0  0  0  0  0
   22.1800   30.1710   26.5980 N   0  0  0  0  0  0  0  0  0  0  0  0
   22.9100   35.8850   23.8380 O   0  0  0  0  0  0  0  0  0  0  0  0
   21.5820   31.3750   27.1580 C   0  0  0  0  0  0  0  0  0  0  0  0
   20.4590   35.2060   22.7030 N   0  0  0  0  0  0  0  0  0  0  0  0
   19.7220   37.2340   23.4990 O   0  0  0  0  0  0  0  0  0  0  0  0
   22.6210   31.2930   24.5350 C   0  0  0  0  0  0  0  0  0  0  0  0
   21.8370   35.7730   25.8770 N   0  0  0  0  0  0  0  0  0  0  0  0
   19.1840   40.4490   20.4300 O   0  0  0  0  0  0  0  0  0  0  0  0
   20.9890   32.2740   26.0840 C   0  0  0  0  0  0  0  0  0  0  0  0
   19.2260   38.2290   21.0470 N   0  0  0  0  0  0  0  0  0  0  0  0
   22.2990   27.9250   26.1620 O   0  0  0  0  0  0  0  0  0  0  0  0
   22.0140   32.5920   25.0110 C   0  0  0  0  0  0  0  0  0  0  0  0
   20.3220   27.7300   28.3690 N   0  0  0  0  0  0  0  0  0  0  0  0
   21.3720   33.2250   23.7840 C   0  0  0  0  0  0  0  0  0  0  0  0
   19.0670   27.6350   28.8310 N   0  0  0  0  0  0  0  0  0  0  0  0
   20.8670   34.6420   23.9850 C   0  0  0  0  0  0  0  0  0  0  0  0
   21.9800   35.5020   24.5340 C   0  0  0  0  0  0  0  0  0  0  0  0
   22.8960   36.4900   26.5470 C   0  0  0  0  0  0  0  0  0  0  0  0
   20.0060   36.5110   22.5530 C   0  0  0  0  0  0  0  0  0  0  0  0
   19.8480   36.9190   21.0890 C   0  0  0  0  0  0  0  0  0  0  0  0
   19.8130   39.4060   20.5960 C   0  0  0  0  0  0  0  0  0  0  0  0
   21.2890   39.3710   20.2870 C   0  0  0  0  0  0  0  0  0  0  0  0
   21.9800   38.0940   20.6960 C   0  0  0  0  0  0  0  0  0  0  0  0
   21.1580   36.8750   20.3520 C   0  0  0  0  0  0  0  0  0  0  0  0
   21.7150   28.8670   26.6720 C   0  0  0  0  0  0  0  0  0  0  0  0
   20.4910   28.6160   27.3480 C   0  0  0  0  0  0  0  0  0  0  0  0
   18.3900   28.5060   28.0780 C   0  0  0  0  0  0  0  0  0  0  0  0
   19.2360   29.1300   27.1260 C   0  0  0  0  0  0  0  0  0  0  0  0
   16.9400   28.7340   28.2510 C   0  0  0  0  0  0  0  0  0  0  0  0
   16.1860   27.8940   27.2480 C   0  0  0  0  0  0  0  0  0  0  0  0
   16.6150   30.1900   27.9870 C   0  0  0  0  0  0  0  0  0  0  0  0
   16.4510   28.4030   29.6470 C   0  0  0  0  0  0  0  0  0  0  0  0
   21.3790   26.9500   28.9850 C   0  0  0  0  0  0  0  0  0  0  0  0
   23.7140   29.6010   25.2830 H   0  0  0  0  0  0  0  0  0  0  0  0
   23.9790   31.0960   26.1990 H   0  0  0  0  0  0  0  0  0  0  0  0
   22.3860   31.9150   27.6660 H   0  0  0  0  0  0  0  0  0  0  0  0
   20.8370   31.1220   27.9130 H   0  0  0  0  0  0  0  0  0  0  0  0
   23.3800   31.4750   23.7730 H   0  0  0  0  0  0  0  0  0  0  0  0
   21.8230   30.7030   24.0860 H   0  0  0  0  0  0  0  0  0  0  0  0
   20.1310   31.7760   25.6270 H   0  0  0  0  0  0  0  0  0  0  0  0
   20.6220   33.1910   26.5420 H   0  0  0  0  0  0  0  0  0  0  0  0
   22.8040   33.2200   25.4240 H   0  0  0  0  0  0  0  0  0  0  0  0
   20.5330   32.5990   23.4670 H   0  0  0  0  0  0  0  0  0  0  0  0
   22.0920   33.2360   22.9610 H   0  0  0  0  0  0  0  0  0  0  0  0
   19.9990   34.6610   24.6490 H   0  0  0  0  0  0  0  0  0  0  0  0
   20.3380   34.5690   21.9210 H   0  0  0  0  0  0  0  0  0  0  0  0
   21.1480   35.2860   26.4360 H   0  0  0  0  0  0  0  0  0  0  0  0
   23.7740   35.8410   26.6110 H   0  0  0  0  0  0  0  0  0  0  0  0
   22.5560   36.7700   27.5470 H   0  0  0  0  0  0  0  0  0  0  0  0
   23.1470   37.3870   25.9750 H   0  0  0  0  0  0  0  0  0  0  0  0
   19.1480   36.2250   20.6170 H   0  0  0  0  0  0  0  0  0  0  0  0
   18.2310   38.2610   21.2310 H   0  0  0  0  0  0  0  0  0  0  0  0
   21.4090   39.5280   19.2120 H   0  0  0  0  0  0  0  0  0  0  0  0
   21.7550   40.2170   20.7960 H   0  0  0  0  0  0  0  0  0  0  0  0
   22.9450   38.0330   20.1860 H   0  0  0  0  0  0  0  0  0  0  0  0
   22.1770   38.1200   21.7720 H   0  0  0  0  0  0  0  0  0  0  0  0
   20.9560   36.8640   19.2790 H   0  0  0  0  0  0  0  0  0  0  0  0
   21.7000   35.9610   20.5840 H   0  0  0  0  0  0  0  0  0  0  0  0
   18.9720   29.8630   26.3830 H   0  0  0  0  0  0  0  0  0  0  0  0
   15.1480   28.2260   27.1900 H   0  0  0  0  0  0  0  0  0  0  0  0
   16.6340   27.9860   26.2560 H   0  0  0  0  0  0  0  0  0  0  0  0
   16.2090   26.8420   27.5410 H   0  0  0  0  0  0  0  0  0  0  0  0
   15.5940   30.4290   28.2940 H   0  0  0  0  0  0  0  0  0  0  0  0
   17.3040   30.8440   28.5290 H   0  0  0  0  0  0  0  0  0  0  0  0
   16.7080   30.3980   26.9220 H   0  0  0  0  0  0  0  0  0  0  0  0
   15.3870   28.6270   29.7440 H   0  0  0  0  0  0  0  0  0  0  0  0
   16.5940   27.3410   29.8630 H   0  0  0  0  0  0  0  0  0  0  0  0
   16.9980   28.9930   30.3880 H   0  0  0  0  0  0  0  0  0  0  0  0
   22.1780   27.6350   29.2810 H   0  0  0  0  0  0  0  0  0  0  0  0
   20.9680   26.4450   29.8640 H   0  0  0  0  0  0  0  0  0  0  0  0
   21.7430   26.2260   28.2520 H   0  0  0  0  0  0  0  0  0  0  0  0
  1  2  1  0  0  0  0
  2  4  1  0  0  0  0
  1  7  1  0  0  0  0
  4 10  1  0  0  0  0
  7 13  1  0  0  0  0
 10 13  1  0  0  0  0
 13 15  1  0  0  0  0
 14 16  1  0  0  0  0
  5 17  1  0  0  0  0
 15 17  1  0  0  0  0
  3 18  2  0  0  0  0
  8 18  1  0  0  0  0
 17 18  1  0  0  0  0
  8 19  1  0  0  0  0
  5 20  1  0  0  0  0
  6 20  2  0  0  0  0
 11 21  1  0  0  0  0
 20 21  1  0  0  0  0
  9 22  2  0  0  0  0
 11 22  1  0  0  0  0
 22 23  1  0  0  0  0
 23 24  1  0  0  0  0
 21 25  1  0  0  0  0
 24 25  1  0  0  0  0
  2 26  1  0  0  0  0
 12 26  2  0  0  0  0
 14 27  1  0  0  0  0
 26 27  1  0  0  0  0
 16 28  2  0  0  0  0
 27 29  2  0  0  0  0
 28 29  1  0  0  0  0
 28 30  1  0  0  0  0
 30 31  1  0  0  0  0
 30 32  1  0  0  0  0
 30 33  1  0  0  0  0
 14 34  1  0  0  0  0
  1 35  1  0  0  0  0
  1 36  1  0  0  0  0
  4 37  1  0  0  0  0
  4 38  1  0  0  0  0
  7 39  1  0  0  0  0
  7 40  1  0  0  0  0
 10 41  1  0  0  0  0
 10 42  1  0  0  0  0
 13 43  1  0  0  0  0
 15 44  1  0  0  0  0
 15 45  1  0  0  0  0
 17 46  1  0  0  0  0
  5 47  1  0  0  0  0
  8 48  1  0  0  0  0
 19 49  1  0  0  0  0
 19 50  1  0  0  0  0
 19 51  1  0  0  0  0
 21 52  1  0  0  0  0
 11 53  1  0  0  0  0
 23 54  1  0  0  0  0
 23 55  1  0  0  0  0
 24 56  1  0  0  0  0
 24 57  1  0  0  0  0
 25 58  1  0  0  0  0
 25 59  1  0  0  0  0
 29 60  1  0  0  0  0
 31 61  1  0  0  0  0
 31 62  1  0  0  0  0
 31 63  1  0  0  0  0
 32 64  1  0  0  0  0
 32 65  1  0  0  0  0
 32 66  1  0  0  0  0
 33 67  1  0  0  0  0
 33 68  1  0  0  0  0
 33 69  1  0  0  0  0
 34 70  1  0  0  0  0
 34 71  1  0  0  0  0
 34 72  1  0  0  0  0
M  END
$$$$
