6WFG
  PyMOL3.1          3D                             0

 72 74  0  0  0  0  0  0  0  0999 V2000
    9.7500   -6.4770   17.9210 C   0  0  0  0  0  0  0  0  0  0  0  0
   10.7630   -7.2210   18.6610 N   0  0  0  0  0  0  0  0  0  0  0  0
    9.5560   -7.9310   12.5160 O   0  0  0  0  0  0  0  0  0  0  0  0
   11.2650   -8.3390   17.8840 C   0  0  0  0  0  0  0  0  0  0  0  0
   12.1580   -6.7750   12.2580 N   0  0  0  0  0  0  0  0  0  0  0  0
   12.3220   -8.5840   10.9010 O   0  0  0  0  0  0  0  0  0  0  0  0
   10.3000   -5.9590   16.6100 C   0  0  0  0  0  0  0  0  0  0  0  0
   10.6020   -9.6370   13.6330 N   0  0  0  0  0  0  0  0  0  0  0  0
   12.8820   -8.0100    6.6000 O   0  0  0  0  0  0  0  0  0  0  0  0
   11.8730   -7.8580   16.5820 C   0  0  0  0  0  0  0  0  0  0  0  0
   13.0980   -7.2340    8.7590 N   0  0  0  0  0  0  0  0  0  0  0  0
   10.9590   -5.6230   20.2890 O   0  0  0  0  0  0  0  0  0  0  0  0
   10.8420   -7.0980   15.7820 C   0  0  0  0  0  0  0  0  0  0  0  0
   12.8750   -7.4460   21.5580 N   0  0  0  0  0  0  0  0  0  0  0  0
   11.4600   -6.5020   14.5320 C   0  0  0  0  0  0  0  0  0  0  0  0
   14.1240   -7.8540   21.8250 N   0  0  0  0  0  0  0  0  0  0  0  0
   11.7620   -7.5170   13.4420 C   0  0  0  0  0  0  0  0  0  0  0  0
   10.5270   -8.3510   13.1330 C   0  0  0  0  0  0  0  0  0  0  0  0
    9.4640  -10.5030   13.4790 C   0  0  0  0  0  0  0  0  0  0  0  0
   12.3660   -7.3800   11.0420 C   0  0  0  0  0  0  0  0  0  0  0  0
   12.6410   -6.4320    9.8920 C   0  0  0  0  0  0  0  0  0  0  0  0
   12.4140   -7.4230    7.5670 C   0  0  0  0  0  0  0  0  0  0  0  0
   11.0260   -6.8500    7.4740 C   0  0  0  0  0  0  0  0  0  0  0  0
   10.4310   -6.4780    8.8110 C   0  0  0  0  0  0  0  0  0  0  0  0
   11.4060   -5.6290    9.5760 C   0  0  0  0  0  0  0  0  0  0  0  0
   11.3990   -6.6260   19.7440 C   0  0  0  0  0  0  0  0  0  0  0  0
   12.6380   -7.1400   20.2450 C   0  0  0  0  0  0  0  0  0  0  0  0
   14.7230   -7.8380   20.6290 C   0  0  0  0  0  0  0  0  0  0  0  0
   13.8430   -7.3730   19.6140 C   0  0  0  0  0  0  0  0  0  0  0  0
   16.1450   -8.2010   20.4770 C   0  0  0  0  0  0  0  0  0  0  0  0
   16.9310   -6.9230   20.6120 C   0  0  0  0  0  0  0  0  0  0  0  0
   16.4260   -8.7960   19.1110 C   0  0  0  0  0  0  0  0  0  0  0  0
   16.6250   -9.1760   21.5340 C   0  0  0  0  0  0  0  0  0  0  0  0
   11.9150   -7.3510   22.6430 C   0  0  0  0  0  0  0  0  0  0  0  0
    9.3760   -5.6410   18.5140 H   0  0  0  0  0  0  0  0  0  0  0  0
    8.9180   -7.1580   17.7320 H   0  0  0  0  0  0  0  0  0  0  0  0
   10.4080   -8.9820   17.6690 H   0  0  0  0  0  0  0  0  0  0  0  0
   11.9790   -8.9250   18.4620 H   0  0  0  0  0  0  0  0  0  0  0  0
    9.5110   -5.4470   16.0600 H   0  0  0  0  0  0  0  0  0  0  0  0
   11.0930   -5.2340   16.8000 H   0  0  0  0  0  0  0  0  0  0  0  0
   12.7180   -7.2010   16.7850 H   0  0  0  0  0  0  0  0  0  0  0  0
   12.2410   -8.7110   16.0120 H   0  0  0  0  0  0  0  0  0  0  0  0
   10.0160   -7.7650   15.5390 H   0  0  0  0  0  0  0  0  0  0  0  0
   12.3860   -5.9880   14.8080 H   0  0  0  0  0  0  0  0  0  0  0  0
   10.7830   -5.7470   14.1210 H   0  0  0  0  0  0  0  0  0  0  0  0
   12.6050   -8.1590   13.7160 H   0  0  0  0  0  0  0  0  0  0  0  0
   12.4600   -5.8120   12.3730 H   0  0  0  0  0  0  0  0  0  0  0  0
   11.3210   -9.8940   14.3030 H   0  0  0  0  0  0  0  0  0  0  0  0
    8.6730  -10.1650   14.1540 H   0  0  0  0  0  0  0  0  0  0  0  0
    9.7630  -11.5240   13.7250 H   0  0  0  0  0  0  0  0  0  0  0  0
    9.1120  -10.4620   12.4470 H   0  0  0  0  0  0  0  0  0  0  0  0
   13.4640   -5.7750   10.1830 H   0  0  0  0  0  0  0  0  0  0  0  0
   14.0330   -7.6130    8.8120 H   0  0  0  0  0  0  0  0  0  0  0  0
   11.0760   -5.9660    6.8310 H   0  0  0  0  0  0  0  0  0  0  0  0
   10.3940   -7.5920    6.9770 H   0  0  0  0  0  0  0  0  0  0  0  0
    9.4990   -5.9290    8.6570 H   0  0  0  0  0  0  0  0  0  0  0  0
   10.1940   -7.3840    9.3740 H   0  0  0  0  0  0  0  0  0  0  0  0
   11.6830   -4.7720    8.9590 H   0  0  0  0  0  0  0  0  0  0  0  0
   10.9540   -5.2400   10.4870 H   0  0  0  0  0  0  0  0  0  0  0  0
   14.0600   -7.2380   18.5690 H   0  0  0  0  0  0  0  0  0  0  0  0
   17.9830   -7.1030   20.3850 H   0  0  0  0  0  0  0  0  0  0  0  0
   16.5520   -6.1640   19.9220 H   0  0  0  0  0  0  0  0  0  0  0  0
   16.8590   -6.5320   21.6300 H   0  0  0  0  0  0  0  0  0  0  0  0
   17.4300   -9.2220   19.0590 H   0  0  0  0  0  0  0  0  0  0  0  0
   15.7050   -9.5860   18.8850 H   0  0  0  0  0  0  0  0  0  0  0  0
   16.3450   -8.0230   18.3450 H   0  0  0  0  0  0  0  0  0  0  0  0
   17.6470   -9.5000   21.3250 H   0  0  0  0  0  0  0  0  0  0  0  0
   16.6170   -8.7080   22.5210 H   0  0  0  0  0  0  0  0  0  0  0  0
   15.9760  -10.0550   21.5610 H   0  0  0  0  0  0  0  0  0  0  0  0
   11.0240   -7.9170   22.3570 H   0  0  0  0  0  0  0  0  0  0  0  0
   12.3660   -7.7700   23.5480 H   0  0  0  0  0  0  0  0  0  0  0  0
   11.6660   -6.2980   22.7910 H   0  0  0  0  0  0  0  0  0  0  0  0
  1  2  1  0  0  0  0
  2  4  1  0  0  0  0
  1  7  1  0  0  0  0
  4 10  1  0  0  0  0
  7 13  1  0  0  0  0
 10 13  1  0  0  0  0
 13 15  1  0  0  0  0
 14 16  1  0  0  0  0
  5 17  1  0  0  0  0
 15 17  1  0  0  0  0
  3 18  2  0  0  0  0
  8 18  1  0  0  0  0
 17 18  1  0  0  0  0
  8 19  1  0  0  0  0
  5 20  1  0  0  0  0
  6 20  2  0  0  0  0
 11 21  1  0  0  0  0
 20 21  1  0  0  0  0
  9 22  2  0  0  0  0
 11 22  1  0  0  0  0
 22 23  1  0  0  0  0
 23 24  1  0  0  0  0
 21 25  1  0  0  0  0
 24 25  1  0  0  0  0
  2 26  1  0  0  0  0
 12 26  2  0  0  0  0
 14 27  1  0  0  0  0
 26 27  1  0  0  0  0
 16 28  2  0  0  0  0
 27 29  2  0  0  0  0
 28 29  1  0  0  0  0
 28 30  1  0  0  0  0
 30 31  1  0  0  0  0
 30 32  1  0  0  0  0
 30 33  1  0  0  0  0
 14 34  1  0  0  0  0
  1 35  1  0  0  0  0
  1 36  1  0  0  0  0
  4 37  1  0  0  0  0
  4 38  1  0  0  0  0
  7 39  1  0  0  0  0
  7 40  1  0  0  0  0
 10 41  1  0  0  0  0
 10 42  1  0  0  0  0
 13 43  1  0  0  0  0
 15 44  1  0  0  0  0
 15 45  1  0  0  0  0
 17 46  1  0  0  0  0
  5 47  1  0  0  0  0
  8 48  1  0  0  0  0
 19 49  1  0  0  0  0
 19 50  1  0  0  0  0
 19 51  1  0  0  0  0
 21 52  1  0  0  0  0
 11 53  1  0  0  0  0
 23 54  1  0  0  0  0
 23 55  1  0  0  0  0
 24 56  1  0  0  0  0
 24 57  1  0  0  0  0
 25 58  1  0  0  0  0
 25 59  1  0  0  0  0
 29 60  1  0  0  0  0
 31 61  1  0  0  0  0
 31 62  1  0  0  0  0
 31 63  1  0  0  0  0
 32 64  1  0  0  0  0
 32 65  1  0  0  0  0
 32 66  1  0  0  0  0
 33 67  1  0  0  0  0
 33 68  1  0  0  0  0
 33 69  1  0  0  0  0
 34 70  1  0  0  0  0
 34 71  1  0  0  0  0
 34 72  1  0  0  0  0
M  END
$$$$
