8OO5
  PyMOL3.1          3D                             0

 36 40  0  0  0  0  0  0  0  0999 V2000
  -32.2690  -27.1890   17.3680 Cl  0  0  0  0  0  0  0  0  0  0  0  0
  -39.4270  -32.9550   18.1010 C   0  0  0  0  0  0  0  0  0  0  0  0
  -37.1140  -33.5950   18.9110 C   0  0  0  0  0  0  0  0  0  0  0  0
  -37.0030  -32.3780   19.5930 C   0  0  0  0  0  0  0  0  0  0  0  0
  -38.1190  -31.4360   19.5300 C   0  0  0  0  0  0  0  0  0  0  0  0
  -39.3280  -31.7330   18.7860 C   0  0  0  0  0  0  0  0  0  0  0  0
  -37.9850  -30.2120   20.2460 C   0  0  0  0  0  0  0  0  0  0  0  0
  -36.8210  -30.0390   20.9240 N   0  0  0  0  0  0  0  0  0  0  0  0
  -38.9270  -29.2070   20.3180 N   0  0  0  0  0  0  0  0  0  0  0  0
  -35.8440  -32.1330   20.2970 N   0  0  0  0  0  0  0  0  0  0  0  0
  -35.7720  -30.9290   20.9850 C   0  0  0  0  0  0  0  0  0  0  0  0
  -34.5760  -30.4410   21.8660 C   0  0  0  0  0  0  0  0  0  0  0  0
  -34.0390  -29.5150   20.7630 C   0  0  0  0  0  0  0  0  0  0  0  0
  -33.0560  -30.0960   19.9360 C   0  0  0  0  0  0  0  0  0  0  0  0
  -32.5360  -29.3230   18.9420 C   0  0  0  0  0  0  0  0  0  0  0  0
  -33.0200  -27.9990   18.7660 C   0  0  0  0  0  0  0  0  0  0  0  0
  -34.0140  -27.3730   19.5850 C   0  0  0  0  0  0  0  0  0  0  0  0
  -34.5340  -28.1680   20.5870 C   0  0  0  0  0  0  0  0  0  0  0  0
  -39.9320  -29.1650   21.4330 C   0  0  0  0  0  0  0  0  0  0  0  0
  -40.0770  -27.7460   22.0900 C   0  0  0  0  0  0  0  0  0  0  0  0
  -38.9120  -26.9330   21.6090 N   0  0  0  0  0  0  0  0  0  0  0  0
  -38.3080  -33.8520   18.1680 C   0  0  0  0  0  0  0  0  0  0  0  0
  -38.4320  -35.0700   17.4650 N   0  0  0  0  0  0  0  0  0  0  0  0
  -33.7200  -31.7120   22.2980 C   0  0  0  0  0  0  0  0  0  0  0  0
  -34.4140  -32.5610   23.4190 C   0  0  0  0  0  0  0  0  0  0  0  0
  -34.9890  -31.6450   24.5730 C   0  0  0  0  0  0  0  0  0  0  0  0
  -34.5210  -30.1500   24.4920 C   0  0  0  0  0  0  0  0  0  0  0  0
  -34.9740  -29.5430   23.1300 C   0  0  0  0  0  0  0  0  0  0  0  0
  -37.2740  -35.9980   17.3370 C   0  0  0  0  0  0  0  0  0  0  0  0
  -37.8200  -37.4420   17.2780 C   0  0  0  0  0  0  0  0  0  0  0  0
  -39.2790  -37.6060   16.9600 N   0  0  0  0  0  0  0  0  0  0  0  0
  -40.2710  -36.5420   16.6190 C   0  0  0  0  0  0  0  0  0  0  0  0
  -39.5690  -35.1830   16.5010 C   0  0  0  0  0  0  0  0  0  0  0  0
  -39.7160  -38.9080   16.9850 C   0  0  0  0  0  0  0  0  0  0  0  0
  -38.8620  -39.7540   17.2770 O   0  0  0  0  0  0  0  0  0  0  0  0
  -41.1720  -39.3340   16.6870 C   0  0  0  0  0  0  0  0  0  0  0  0
  3  4  2  0  0  0  0
  4  5  1  0  0  0  0
  2  6  1  0  0  0  0
  5  6  2  0  0  0  0
  5  7  1  0  0  0  0
  7  8  2  0  0  0  0
  7  9  1  0  0  0  0
  4 10  1  0  0  0  0
  8 11  1  0  0  0  0
 10 11  2  0  0  0  0
 11 12  1  0  0  0  0
 12 13  1  0  0  0  0
 13 14  1  0  0  0  0
 14 15  2  0  0  0  0
  1 16  1  0  0  0  0
 15 16  1  0  0  0  0
 16 17  2  0  0  0  0
 13 18  2  0  0  0  0
 17 18  1  0  0  0  0
  9 19  1  0  0  0  0
 19 20  1  0  0  0  0
 20 21  1  0  0  0  0
  2 22  2  0  0  0  0
  3 22  1  0  0  0  0
 22 23  1  0  0  0  0
 12 24  1  0  0  0  0
 24 25  1  0  0  0  0
 25 26  1  0  0  0  0
 26 27  1  0  0  0  0
 12 28  1  0  0  0  0
 27 28  1  0  0  0  0
 23 29  1  0  0  0  0
 29 30  1  0  0  0  0
 30 31  1  0  0  0  0
 31 32  1  0  0  0  0
 23 33  1  0  0  0  0
 32 33  1  0  0  0  0
 31 34  1  0  0  0  0
 34 35  2  0  0  0  0
 34 36  1  0  0  0  0
M  END
$$$$
