7MIG
  PyMOL3.1          3D                             0

212224  0  0  0  0  0  0  0  0999 V2000
  129.1770  148.5930  146.0590 C   0  0  0  0  0  0  0  0  0  0  0  0
  127.3030  150.0620  146.3470 N   0  0  0  0  0  0  0  0  0  0  0  0
  126.5970  136.5330  143.4690 O   0  0  0  0  0  0  0  0  0  0  0  0
  124.0490  138.2420  143.3920 S   0  0  0  0  0  0  0  0  0  0  0  0
  128.6250  149.8760  146.1250 C   0  0  0  0  0  0  0  0  0  0  0  0
  128.3910  147.4900  146.1680 N   0  0  0  0  0  0  0  0  0  0  0  0
  128.7060  137.8400  143.5820 O   0  0  0  0  0  0  0  0  0  0  0  0
  127.2540  137.8340  143.3780 S   0  0  0  0  0  0  0  0  0  0  0  0
  126.5280  148.9580  146.4820 C   0  0  0  0  0  0  0  0  0  0  0  0
  126.0450  144.0740  147.0190 N   0  0  0  0  0  0  0  0  0  0  0  0
  122.7490  143.1070  144.8730 O   0  0  0  0  0  0  0  0  0  0  0  0
  127.0570  147.6670  146.3760 C   0  0  0  0  0  0  0  0  0  0  0  0
  124.1130  142.8750  146.6630 N   0  0  0  0  0  0  0  0  0  0  0  0
  130.6690  148.3400  145.9270 C   0  0  0  0  0  0  0  0  0  0  0  0
  124.6750  139.9010  145.2330 N   0  0  0  0  0  0  0  0  0  0  0  0
  126.2200  146.4450  146.5050 C   0  0  0  0  0  0  0  0  0  0  0  0
  126.5490  138.9050  144.2550 N   0  0  0  0  0  0  0  0  0  0  0  0
  124.8520  146.4620  146.2040 C   0  0  0  0  0  0  0  0  0  0  0  0
  124.1000  145.2940  146.2960 C   0  0  0  0  0  0  0  0  0  0  0  0
  124.7420  144.1110  146.6650 C   0  0  0  0  0  0  0  0  0  0  0  0
  126.7580  145.2230  146.9320 C   0  0  0  0  0  0  0  0  0  0  0  0
  122.6300  140.9840  146.0520 C   0  0  0  0  0  0  0  0  0  0  0  0
  123.3570  140.0010  145.1210 C   0  0  0  0  0  0  0  0  0  0  0  0
  121.1060  140.9710  145.7670 C   0  0  0  0  0  0  0  0  0  0  0  0
  122.8340  140.5070  147.5190 C   0  0  0  0  0  0  0  0  0  0  0  0
  122.8030  139.1580  144.1600 C   0  0  0  0  0  0  0  0  0  0  0  0
  125.2210  139.0640  144.3910 C   0  0  0  0  0  0  0  0  0  0  0  0
  126.9390  138.3890  141.5980 C   0  0  0  0  0  0  0  0  0  0  0  0
  127.5800  139.6690  141.1480 C   0  0  0  0  0  0  0  0  0  0  0  0
  128.0940  138.3460  140.6270 C   0  0  0  0  0  0  0  0  0  0  0  0
  123.1560  142.4360  145.8280 C   0  0  0  0  0  0  0  0  0  0  0  0
  131.3830  149.4230  146.2230 F   0  0  0  0  0  0  0  0  0  0  0  0
  131.0310  147.3620  146.7550 F   0  0  0  0  0  0  0  0  0  0  0  0
  130.9650  147.9740  144.6890 F   0  0  0  0  0  0  0  0  0  0  0  0
  129.2660  150.7350  145.9960 H   0  0  0  0  0  0  0  0  0  0  0  0
  125.4730  149.0780  146.6770 H   0  0  0  0  0  0  0  0  0  0  0  0
  124.4110  142.2250  147.3770 H   0  0  0  0  0  0  0  0  0  0  0  0
  127.1420  139.5400  144.7700 H   0  0  0  0  0  0  0  0  0  0  0  0
  124.3790  147.3840  145.9000 H   0  0  0  0  0  0  0  0  0  0  0  0
  123.0410  145.3030  146.0860 H   0  0  0  0  0  0  0  0  0  0  0  0
  127.8020  145.1960  147.2080 H   0  0  0  0  0  0  0  0  0  0  0  0
  121.7500  139.0880  143.9300 H   0  0  0  0  0  0  0  0  0  0  0  0
  125.9530  138.1700  141.1890 H   0  0  0  0  0  0  0  0  0  0  0  0
  120.9240  141.3010  144.7440 H   0  0  0  0  0  0  0  0  0  0  0  0
  120.7210  139.9590  145.8960 H   0  0  0  0  0  0  0  0  0  0  0  0
  120.6010  141.6430  146.4610 H   0  0  0  0  0  0  0  0  0  0  0  0
  122.1480  139.6880  147.7340 H   0  0  0  0  0  0  0  0  0  0  0  0
  122.6360  141.3340  148.2010 H   0  0  0  0  0  0  0  0  0  0  0  0
  123.8610  140.1650  147.6510 H   0  0  0  0  0  0  0  0  0  0  0  0
  128.1830  140.2510  141.8460 H   0  0  0  0  0  0  0  0  0  0  0  0
  126.9990  140.2550  140.4360 H   0  0  0  0  0  0  0  0  0  0  0  0
  127.9230  138.0650  139.5880 H   0  0  0  0  0  0  0  0  0  0  0  0
  129.0440  138.0170  141.0480 H   0  0  0  0  0  0  0  0  0  0  0  0
  129.1650  166.4250  168.9640 C   0  0  0  0  0  0  0  0  0  0  0  0
  127.2910  164.9560  168.6770 N   0  0  0  0  0  0  0  0  0  0  0  0
  126.5850  178.4840  171.5570 O   0  0  0  0  0  0  0  0  0  0  0  0
  124.0370  176.7750  171.6360 S   0  0  0  0  0  0  0  0  0  0  0  0
  128.6130  165.1420  168.8990 C   0  0  0  0  0  0  0  0  0  0  0  0
  128.3790  167.5280  168.8560 N   0  0  0  0  0  0  0  0  0  0  0  0
  128.6940  177.1780  171.4430 O   0  0  0  0  0  0  0  0  0  0  0  0
  127.2420  177.1830  171.6480 S   0  0  0  0  0  0  0  0  0  0  0  0
  126.5160  166.0600  168.5430 C   0  0  0  0  0  0  0  0  0  0  0  0
  126.0320  170.9440  168.0070 N   0  0  0  0  0  0  0  0  0  0  0  0
  122.7370  171.9100  170.1550 O   0  0  0  0  0  0  0  0  0  0  0  0
  127.0440  167.3510  168.6490 C   0  0  0  0  0  0  0  0  0  0  0  0
  124.1000  172.1430  168.3640 N   0  0  0  0  0  0  0  0  0  0  0  0
  130.6570  166.6780  169.0960 C   0  0  0  0  0  0  0  0  0  0  0  0
  124.6620  175.1160  169.7940 N   0  0  0  0  0  0  0  0  0  0  0  0
  126.2070  168.5730  168.5200 C   0  0  0  0  0  0  0  0  0  0  0  0
  126.5370  176.1120  170.7710 N   0  0  0  0  0  0  0  0  0  0  0  0
  124.8390  168.5560  168.8220 C   0  0  0  0  0  0  0  0  0  0  0  0
  124.0870  169.7230  168.7310 C   0  0  0  0  0  0  0  0  0  0  0  0
  124.7290  170.9070  168.3620 C   0  0  0  0  0  0  0  0  0  0  0  0
  126.7450  169.7950  168.0930 C   0  0  0  0  0  0  0  0  0  0  0  0
  122.6170  174.0330  168.9760 C   0  0  0  0  0  0  0  0  0  0  0  0
  123.3450  175.0160  169.9070 C   0  0  0  0  0  0  0  0  0  0  0  0
  121.0930  174.0460  169.2620 C   0  0  0  0  0  0  0  0  0  0  0  0
  122.8200  174.5100  167.5090 C   0  0  0  0  0  0  0  0  0  0  0  0
  122.7910  175.8590  170.8680 C   0  0  0  0  0  0  0  0  0  0  0  0
  125.2090  175.9530  170.6360 C   0  0  0  0  0  0  0  0  0  0  0  0
  126.9290  176.6280  173.4280 C   0  0  0  0  0  0  0  0  0  0  0  0
  127.5700  175.3480  173.8770 C   0  0  0  0  0  0  0  0  0  0  0  0
  128.0840  176.6710  174.3980 C   0  0  0  0  0  0  0  0  0  0  0  0
  123.1430  172.5810  169.2000 C   0  0  0  0  0  0  0  0  0  0  0  0
  131.3710  165.5950  168.7990 F   0  0  0  0  0  0  0  0  0  0  0  0
  131.0180  167.6560  168.2670 F   0  0  0  0  0  0  0  0  0  0  0  0
  130.9540  167.0440  170.3330 F   0  0  0  0  0  0  0  0  0  0  0  0
  129.2540  164.2830  169.0280 H   0  0  0  0  0  0  0  0  0  0  0  0
  125.4600  165.9390  168.3490 H   0  0  0  0  0  0  0  0  0  0  0  0
  124.3970  172.7930  167.6500 H   0  0  0  0  0  0  0  0  0  0  0  0
  127.1300  175.4780  170.2550 H   0  0  0  0  0  0  0  0  0  0  0  0
  124.3670  167.6340  169.1270 H   0  0  0  0  0  0  0  0  0  0  0  0
  123.0280  169.7130  168.9420 H   0  0  0  0  0  0  0  0  0  0  0  0
  127.7890  169.8220  167.8160 H   0  0  0  0  0  0  0  0  0  0  0  0
  121.7380  175.9290  171.0980 H   0  0  0  0  0  0  0  0  0  0  0  0
  125.9430  176.8470  173.8380 H   0  0  0  0  0  0  0  0  0  0  0  0
  120.9120  173.7160  170.2850 H   0  0  0  0  0  0  0  0  0  0  0  0
  120.5880  173.3730  168.5690 H   0  0  0  0  0  0  0  0  0  0  0  0
  120.7080  175.0570  169.1330 H   0  0  0  0  0  0  0  0  0  0  0  0
  122.1340  175.3290  167.2940 H   0  0  0  0  0  0  0  0  0  0  0  0
  122.6220  173.6830  166.8280 H   0  0  0  0  0  0  0  0  0  0  0  0
  123.8460  174.8520  167.3770 H   0  0  0  0  0  0  0  0  0  0  0  0
  128.1720  174.7670  173.1790 H   0  0  0  0  0  0  0  0  0  0  0  0
  126.9890  174.7620  174.5890 H   0  0  0  0  0  0  0  0  0  0  0  0
  129.0550  177.0450  174.0740 H   0  0  0  0  0  0  0  0  0  0  0  0
  127.8170  176.9000  175.4300 H   0  0  0  0  0  0  0  0  0  0  0  0
  185.8300  148.5840  168.9750 C   0  0  0  0  0  0  0  0  0  0  0  0
  187.7050  150.0520  168.6870 N   0  0  0  0  0  0  0  0  0  0  0  0
  188.4020  136.5240  171.5700 O   0  0  0  0  0  0  0  0  0  0  0  0
  190.9510  138.2310  171.6480 S   0  0  0  0  0  0  0  0  0  0  0  0
  186.3830  149.8670  168.9090 C   0  0  0  0  0  0  0  0  0  0  0  0
  186.6150  147.4810  168.8670 N   0  0  0  0  0  0  0  0  0  0  0  0
  186.2940  137.8320  171.4550 O   0  0  0  0  0  0  0  0  0  0  0  0
  187.7450  137.8250  171.6600 S   0  0  0  0  0  0  0  0  0  0  0  0
  188.4790  148.9480  168.5530 C   0  0  0  0  0  0  0  0  0  0  0  0
  188.9600  144.0630  168.0180 N   0  0  0  0  0  0  0  0  0  0  0  0
  192.2540  143.0950  170.1660 O   0  0  0  0  0  0  0  0  0  0  0  0
  187.9500  147.6570  168.6590 C   0  0  0  0  0  0  0  0  0  0  0  0
  190.8910  142.8630  168.3760 N   0  0  0  0  0  0  0  0  0  0  0  0
  184.3380  148.3320  169.1060 C   0  0  0  0  0  0  0  0  0  0  0  0
  190.3270  139.8900  169.8060 N   0  0  0  0  0  0  0  0  0  0  0  0
  188.7860  146.4350  168.5310 C   0  0  0  0  0  0  0  0  0  0  0  0
  188.4520  138.8950  170.7830 N   0  0  0  0  0  0  0  0  0  0  0  0
  190.1540  146.4510  168.8330 C   0  0  0  0  0  0  0  0  0  0  0  0
  190.9050  145.2830  168.7420 C   0  0  0  0  0  0  0  0  0  0  0  0
  190.2630  144.1000  168.3730 C   0  0  0  0  0  0  0  0  0  0  0  0
  188.2480  145.2130  168.1040 C   0  0  0  0  0  0  0  0  0  0  0  0
  192.3730  140.9720  168.9880 C   0  0  0  0  0  0  0  0  0  0  0  0
  191.6450  139.9900  169.9190 C   0  0  0  0  0  0  0  0  0  0  0  0
  193.8970  140.9580  169.2740 C   0  0  0  0  0  0  0  0  0  0  0  0
  192.1690  140.4940  167.5210 C   0  0  0  0  0  0  0  0  0  0  0  0
  192.1980  139.1460  170.8810 C   0  0  0  0  0  0  0  0  0  0  0  0
  189.7800  139.0540  170.6480 C   0  0  0  0  0  0  0  0  0  0  0  0
  188.0600  138.3810  173.4400 C   0  0  0  0  0  0  0  0  0  0  0  0
  187.4190  139.6610  173.8890 C   0  0  0  0  0  0  0  0  0  0  0  0
  186.9040  138.3380  174.4100 C   0  0  0  0  0  0  0  0  0  0  0  0
  191.8470  142.4240  169.2110 C   0  0  0  0  0  0  0  0  0  0  0  0
  183.6250  149.4160  168.8090 F   0  0  0  0  0  0  0  0  0  0  0  0
  183.9760  147.3540  168.2780 F   0  0  0  0  0  0  0  0  0  0  0  0
  184.0410  147.9670  170.3440 F   0  0  0  0  0  0  0  0  0  0  0  0
  185.7420  150.7270  169.0380 H   0  0  0  0  0  0  0  0  0  0  0  0
  189.5350  149.0680  168.3590 H   0  0  0  0  0  0  0  0  0  0  0  0
  190.5930  142.2130  167.6630 H   0  0  0  0  0  0  0  0  0  0  0  0
  187.8590  139.5290  170.2670 H   0  0  0  0  0  0  0  0  0  0  0  0
  190.6270  147.3730  169.1370 H   0  0  0  0  0  0  0  0  0  0  0  0
  191.9640  145.2920  168.9530 H   0  0  0  0  0  0  0  0  0  0  0  0
  187.2040  145.1860  167.8270 H   0  0  0  0  0  0  0  0  0  0  0  0
  193.2510  139.0750  171.1120 H   0  0  0  0  0  0  0  0  0  0  0  0
  189.0460  138.1620  173.8500 H   0  0  0  0  0  0  0  0  0  0  0  0
  194.0780  141.2880  170.2970 H   0  0  0  0  0  0  0  0  0  0  0  0
  194.2810  139.9460  169.1460 H   0  0  0  0  0  0  0  0  0  0  0  0
  194.4030  141.6290  168.5800 H   0  0  0  0  0  0  0  0  0  0  0  0
  192.8550  139.6740  167.3070 H   0  0  0  0  0  0  0  0  0  0  0  0
  192.3670  141.3210  166.8390 H   0  0  0  0  0  0  0  0  0  0  0  0
  191.1420  140.1530  167.3900 H   0  0  0  0  0  0  0  0  0  0  0  0
  187.9580  140.3360  174.5540 H   0  0  0  0  0  0  0  0  0  0  0  0
  186.7840  140.1480  173.1480 H   0  0  0  0  0  0  0  0  0  0  0  0
  185.9330  137.9640  174.0860 H   0  0  0  0  0  0  0  0  0  0  0  0
  187.1700  138.1090  175.4420 H   0  0  0  0  0  0  0  0  0  0  0  0
  185.8310  166.4190  146.0290 C   0  0  0  0  0  0  0  0  0  0  0  0
  187.7060  164.9510  146.3160 N   0  0  0  0  0  0  0  0  0  0  0  0
  188.4050  178.4800  143.4350 O   0  0  0  0  0  0  0  0  0  0  0  0
  190.9540  176.7720  143.3570 S   0  0  0  0  0  0  0  0  0  0  0  0
  186.3840  165.1370  146.0950 C   0  0  0  0  0  0  0  0  0  0  0  0
  186.6170  167.5230  146.1370 N   0  0  0  0  0  0  0  0  0  0  0  0
  186.2970  177.1720  143.5490 O   0  0  0  0  0  0  0  0  0  0  0  0
  187.7490  177.1790  143.3450 S   0  0  0  0  0  0  0  0  0  0  0  0
  188.4810  166.0550  146.4500 C   0  0  0  0  0  0  0  0  0  0  0  0
  188.9620  170.9400  146.9860 N   0  0  0  0  0  0  0  0  0  0  0  0
  192.2570  171.9080  144.8380 O   0  0  0  0  0  0  0  0  0  0  0  0
  187.9510  167.3460  146.3440 C   0  0  0  0  0  0  0  0  0  0  0  0
  190.8940  172.1390  146.6290 N   0  0  0  0  0  0  0  0  0  0  0  0
  184.3390  166.6720  145.8980 C   0  0  0  0  0  0  0  0  0  0  0  0
  190.3300  175.1130  145.1990 N   0  0  0  0  0  0  0  0  0  0  0  0
  188.7880  168.5690  146.4730 C   0  0  0  0  0  0  0  0  0  0  0  0
  188.4550  176.1080  144.2210 N   0  0  0  0  0  0  0  0  0  0  0  0
  190.1560  168.5520  146.1710 C   0  0  0  0  0  0  0  0  0  0  0  0
  190.9070  169.7200  146.2620 C   0  0  0  0  0  0  0  0  0  0  0  0
  190.2650  170.9030  146.6310 C   0  0  0  0  0  0  0  0  0  0  0  0
  188.2500  169.7900  146.9000 C   0  0  0  0  0  0  0  0  0  0  0  0
  192.3750  174.0310  146.0170 C   0  0  0  0  0  0  0  0  0  0  0  0
  191.6480  175.0130  145.0860 C   0  0  0  0  0  0  0  0  0  0  0  0
  193.8990  174.0440  145.7310 C   0  0  0  0  0  0  0  0  0  0  0  0
  192.1720  174.5080  147.4840 C   0  0  0  0  0  0  0  0  0  0  0  0
  192.2010  175.8560  144.1240 C   0  0  0  0  0  0  0  0  0  0  0  0
  189.7830  175.9500  144.3570 C   0  0  0  0  0  0  0  0  0  0  0  0
  188.0630  176.6230  141.5650 C   0  0  0  0  0  0  0  0  0  0  0  0
  187.4220  175.3430  141.1150 C   0  0  0  0  0  0  0  0  0  0  0  0
  186.9070  176.6660  140.5940 C   0  0  0  0  0  0  0  0  0  0  0  0
  191.8500  172.5790  145.7930 C   0  0  0  0  0  0  0  0  0  0  0  0
  183.6260  165.5880  146.1940 F   0  0  0  0  0  0  0  0  0  0  0  0
  183.9770  167.6500  146.7260 F   0  0  0  0  0  0  0  0  0  0  0  0
  184.0420  167.0370  144.6600 F   0  0  0  0  0  0  0  0  0  0  0  0
  185.7430  164.2770  145.9670 H   0  0  0  0  0  0  0  0  0  0  0  0
  189.5370  165.9350  146.6440 H   0  0  0  0  0  0  0  0  0  0  0  0
  190.5970  172.7880  147.3440 H   0  0  0  0  0  0  0  0  0  0  0  0
  187.8620  175.4720  144.7350 H   0  0  0  0  0  0  0  0  0  0  0  0
  190.6290  167.6300  145.8670 H   0  0  0  0  0  0  0  0  0  0  0  0
  191.9660  169.7110  146.0510 H   0  0  0  0  0  0  0  0  0  0  0  0
  187.2060  169.8160  147.1770 H   0  0  0  0  0  0  0  0  0  0  0  0
  193.2540  175.9260  143.8920 H   0  0  0  0  0  0  0  0  0  0  0  0
  189.0490  176.8420  141.1550 H   0  0  0  0  0  0  0  0  0  0  0  0
  194.0800  173.7140  144.7080 H   0  0  0  0  0  0  0  0  0  0  0  0
  194.2840  175.0560  145.8600 H   0  0  0  0  0  0  0  0  0  0  0  0
  194.4050  173.3720  146.4240 H   0  0  0  0  0  0  0  0  0  0  0  0
  192.8570  175.3280  147.6980 H   0  0  0  0  0  0  0  0  0  0  0  0
  192.3710  173.6810  148.1660 H   0  0  0  0  0  0  0  0  0  0  0  0
  191.1450  174.8480  147.6170 H   0  0  0  0  0  0  0  0  0  0  0  0
  187.9610  174.6690  140.4500 H   0  0  0  0  0  0  0  0  0  0  0  0
  186.7870  174.8560  141.8550 H   0  0  0  0  0  0  0  0  0  0  0  0
  185.9360  177.0400  140.9180 H   0  0  0  0  0  0  0  0  0  0  0  0
  187.1740  176.8960  139.5620 H   0  0  0  0  0  0  0  0  0  0  0  0
  1  5  2  0  0  0  0
  2  5  1  0  0  0  0
  1  6  1  0  0  0  0
  3  8  2  0  0  0  0
  7  8  2  0  0  0  0
  2  9  2  0  0  0  0
  6 12  2  0  0  0  0
  9 12  1  0  0  0  0
  1 14  1  0  0  0  0
 12 16  1  0  0  0  0
  8 17  1  0  0  0  0
 16 18  2  0  0  0  0
 18 19  1  0  0  0  0
 10 20  1  0  0  0  0
 13 20  1  0  0  0  0
 19 20  2  0  0  0  0
 10 21  2  0  0  0  0
 16 21  1  0  0  0  0
 15 23  1  0  0  0  0
 22 23  1  0  0  0  0
 22 24  1  0  0  0  0
 22 25  1  0  0  0  0
  4 26  1  0  0  0  0
 23 26  2  0  0  0  0
  4 27  1  0  0  0  0
 15 27  2  0  0  0  0
 17 27  1  0  0  0  0
  8 28  1  0  0  0  0
 28 29  1  0  0  0  0
 28 30  1  0  0  0  0
 29 30  1  0  0  0  0
 11 31  2  0  0  0  0
 13 31  1  0  0  0  0
 22 31  1  0  0  0  0
 14 32  1  0  0  0  0
 14 33  1  0  0  0  0
 14 34  1  0  0  0  0
  5 35  1  0  0  0  0
  9 36  1  0  0  0  0
 13 37  1  0  0  0  0
 17 38  1  0  0  0  0
 18 39  1  0  0  0  0
 19 40  1  0  0  0  0
 21 41  1  0  0  0  0
 26 42  1  0  0  0  0
 28 43  1  0  0  0  0
 24 44  1  0  0  0  0
 24 45  1  0  0  0  0
 24 46  1  0  0  0  0
 25 47  1  0  0  0  0
 25 48  1  0  0  0  0
 25 49  1  0  0  0  0
 29 50  1  0  0  0  0
 29 51  1  0  0  0  0
 30 52  1  0  0  0  0
 30 53  1  0  0  0  0
 54 58  2  0  0  0  0
 55 58  1  0  0  0  0
 54 59  1  0  0  0  0
 56 61  2  0  0  0  0
 60 61  2  0  0  0  0
 55 62  2  0  0  0  0
 59 65  2  0  0  0  0
 62 65  1  0  0  0  0
 54 67  1  0  0  0  0
 65 69  1  0  0  0  0
 61 70  1  0  0  0  0
 69 71  2  0  0  0  0
 71 72  1  0  0  0  0
 63 73  1  0  0  0  0
 66 73  1  0  0  0  0
 72 73  2  0  0  0  0
 63 74  2  0  0  0  0
 69 74  1  0  0  0  0
 68 76  1  0  0  0  0
 75 76  1  0  0  0  0
 75 77  1  0  0  0  0
 75 78  1  0  0  0  0
 57 79  1  0  0  0  0
 76 79  2  0  0  0  0
 57 80  1  0  0  0  0
 68 80  2  0  0  0  0
 70 80  1  0  0  0  0
 61 81  1  0  0  0  0
 81 82  1  0  0  0  0
 81 83  1  0  0  0  0
 82 83  1  0  0  0  0
 64 84  2  0  0  0  0
 66 84  1  0  0  0  0
 75 84  1  0  0  0  0
 67 85  1  0  0  0  0
 67 86  1  0  0  0  0
 67 87  1  0  0  0  0
 58 88  1  0  0  0  0
 62 89  1  0  0  0  0
 66 90  1  0  0  0  0
 70 91  1  0  0  0  0
 71 92  1  0  0  0  0
 72 93  1  0  0  0  0
 74 94  1  0  0  0  0
 79 95  1  0  0  0  0
 81 96  1  0  0  0  0
 77 97  1  0  0  0  0
 77 98  1  0  0  0  0
 77 99  1  0  0  0  0
 78100  1  0  0  0  0
 78101  1  0  0  0  0
 78102  1  0  0  0  0
 82103  1  0  0  0  0
 82104  1  0  0  0  0
 83105  1  0  0  0  0
 83106  1  0  0  0  0
107111  2  0  0  0  0
108111  1  0  0  0  0
107112  1  0  0  0  0
109114  2  0  0  0  0
113114  2  0  0  0  0
108115  2  0  0  0  0
112118  2  0  0  0  0
115118  1  0  0  0  0
107120  1  0  0  0  0
118122  1  0  0  0  0
114123  1  0  0  0  0
122124  2  0  0  0  0
124125  1  0  0  0  0
116126  1  0  0  0  0
119126  1  0  0  0  0
125126  2  0  0  0  0
116127  2  0  0  0  0
122127  1  0  0  0  0
121129  1  0  0  0  0
128129  1  0  0  0  0
128130  1  0  0  0  0
128131  1  0  0  0  0
110132  1  0  0  0  0
129132  2  0  0  0  0
110133  1  0  0  0  0
121133  2  0  0  0  0
123133  1  0  0  0  0
114134  1  0  0  0  0
134135  1  0  0  0  0
134136  1  0  0  0  0
135136  1  0  0  0  0
117137  2  0  0  0  0
119137  1  0  0  0  0
128137  1  0  0  0  0
120138  1  0  0  0  0
120139  1  0  0  0  0
120140  1  0  0  0  0
111141  1  0  0  0  0
115142  1  0  0  0  0
119143  1  0  0  0  0
123144  1  0  0  0  0
124145  1  0  0  0  0
125146  1  0  0  0  0
127147  1  0  0  0  0
132148  1  0  0  0  0
134149  1  0  0  0  0
130150  1  0  0  0  0
130151  1  0  0  0  0
130152  1  0  0  0  0
131153  1  0  0  0  0
131154  1  0  0  0  0
131155  1  0  0  0  0
135156  1  0  0  0  0
135157  1  0  0  0  0
136158  1  0  0  0  0
136159  1  0  0  0  0
160164  2  0  0  0  0
161164  1  0  0  0  0
160165  1  0  0  0  0
162167  2  0  0  0  0
166167  2  0  0  0  0
161168  2  0  0  0  0
165171  2  0  0  0  0
168171  1  0  0  0  0
160173  1  0  0  0  0
171175  1  0  0  0  0
167176  1  0  0  0  0
175177  2  0  0  0  0
177178  1  0  0  0  0
169179  1  0  0  0  0
172179  1  0  0  0  0
178179  2  0  0  0  0
169180  2  0  0  0  0
175180  1  0  0  0  0
174182  1  0  0  0  0
181182  1  0  0  0  0
181183  1  0  0  0  0
181184  1  0  0  0  0
163185  1  0  0  0  0
182185  2  0  0  0  0
163186  1  0  0  0  0
174186  2  0  0  0  0
176186  1  0  0  0  0
167187  1  0  0  0  0
187188  1  0  0  0  0
187189  1  0  0  0  0
188189  1  0  0  0  0
170190  2  0  0  0  0
172190  1  0  0  0  0
181190  1  0  0  0  0
173191  1  0  0  0  0
173192  1  0  0  0  0
173193  1  0  0  0  0
164194  1  0  0  0  0
168195  1  0  0  0  0
172196  1  0  0  0  0
176197  1  0  0  0  0
177198  1  0  0  0  0
178199  1  0  0  0  0
180200  1  0  0  0  0
185201  1  0  0  0  0
187202  1  0  0  0  0
183203  1  0  0  0  0
183204  1  0  0  0  0
183205  1  0  0  0  0
184206  1  0  0  0  0
184207  1  0  0  0  0
184208  1  0  0  0  0
188209  1  0  0  0  0
188210  1  0  0  0  0
189211  1  0  0  0  0
189212  1  0  0  0  0
M  END
$$$$
