7D4P
  PyMOL3.1          3D                             0

 92104  0  0  0  0  0  0  0  0999 V2000
  174.9630  127.6490  154.5080 N   0  0  0  0  0  0  0  0  0  0  0  0
  174.5650  126.3330  155.0410 C   0  0  0  0  0  0  0  0  0  0  0  0
  177.9180  131.1090  162.0730 Cl  0  0  0  0  0  0  0  0  0  0  0  0
  173.7560  128.3870  154.0900 C   0  0  0  0  0  0  0  0  0  0  0  0
  178.1220  129.0720  155.7010 N   0  0  0  0  0  0  0  0  0  0  0  0
  173.0710  126.1730  154.7900 C   0  0  0  0  0  0  0  0  0  0  0  0
  177.7360  126.9410  155.2090 N   0  0  0  0  0  0  0  0  0  0  0  0
  172.5470  127.5740  154.5290 C   0  0  0  0  0  0  0  0  0  0  0  0
  175.6800  128.4190  155.5350 C   0  0  0  0  0  0  0  0  0  0  0  0
  177.1680  128.1450  155.4810 C   0  0  0  0  0  0  0  0  0  0  0  0
  179.3220  128.5000  155.5790 C   0  0  0  0  0  0  0  0  0  0  0  0
  177.8970  130.4790  156.0260 C   0  0  0  0  0  0  0  0  0  0  0  0
  179.0760  127.0820  155.2510 C   0  0  0  0  0  0  0  0  0  0  0  0
  177.9050  130.6410  157.5270 C   0  0  0  0  0  0  0  0  0  0  0  0
  180.6280  128.9580  155.6940 C   0  0  0  0  0  0  0  0  0  0  0  0
  180.1540  126.2270  155.0610 C   0  0  0  0  0  0  0  0  0  0  0  0
  181.6800  128.0690  155.4960 C   0  0  0  0  0  0  0  0  0  0  0  0
  181.4480  126.7290  155.1860 C   0  0  0  0  0  0  0  0  0  0  0  0
  178.9900  131.2450  158.1550 C   0  0  0  0  0  0  0  0  0  0  0  0
  176.8320  130.1780  158.2800 C   0  0  0  0  0  0  0  0  0  0  0  0
  178.9990  131.3900  159.5380 C   0  0  0  0  0  0  0  0  0  0  0  0
  176.8400  130.3240  159.6610 C   0  0  0  0  0  0  0  0  0  0  0  0
  177.9220  130.9290  160.2880 C   0  0  0  0  0  0  0  0  0  0  0  0
  164.9470  174.9660  154.5080 N   0  0  0  0  0  0  0  0  0  0  0  0
  166.2630  174.5680  155.0410 C   0  0  0  0  0  0  0  0  0  0  0  0
  161.4860  177.9210  162.0720 Cl  0  0  0  0  0  0  0  0  0  0  0  0
  164.2090  173.7590  154.0890 C   0  0  0  0  0  0  0  0  0  0  0  0
  163.5230  178.1250  155.7010 N   0  0  0  0  0  0  0  0  0  0  0  0
  166.4230  173.0740  154.7910 C   0  0  0  0  0  0  0  0  0  0  0  0
  165.6540  177.7390  155.2090 N   0  0  0  0  0  0  0  0  0  0  0  0
  165.0220  172.5500  154.5300 C   0  0  0  0  0  0  0  0  0  0  0  0
  164.1760  175.6830  155.5350 C   0  0  0  0  0  0  0  0  0  0  0  0
  164.4500  177.1710  155.4810 C   0  0  0  0  0  0  0  0  0  0  0  0
  164.0950  179.3250  155.5790 C   0  0  0  0  0  0  0  0  0  0  0  0
  162.1160  177.9000  156.0250 C   0  0  0  0  0  0  0  0  0  0  0  0
  165.5130  179.0790  155.2510 C   0  0  0  0  0  0  0  0  0  0  0  0
  161.9540  177.9070  157.5260 C   0  0  0  0  0  0  0  0  0  0  0  0
  163.6370  180.6310  155.6930 C   0  0  0  0  0  0  0  0  0  0  0  0
  166.3680  180.1570  155.0610 C   0  0  0  0  0  0  0  0  0  0  0  0
  164.5260  181.6830  155.4950 C   0  0  0  0  0  0  0  0  0  0  0  0
  165.8660  181.4510  155.1850 C   0  0  0  0  0  0  0  0  0  0  0  0
  161.3500  178.9920  158.1540 C   0  0  0  0  0  0  0  0  0  0  0  0
  162.4170  176.8340  158.2790 C   0  0  0  0  0  0  0  0  0  0  0  0
  161.2050  179.0010  159.5370 C   0  0  0  0  0  0  0  0  0  0  0  0
  162.2710  176.8420  159.6600 C   0  0  0  0  0  0  0  0  0  0  0  0
  161.6660  177.9240  160.2870 C   0  0  0  0  0  0  0  0  0  0  0  0
  117.6300  164.9490  154.5010 N   0  0  0  0  0  0  0  0  0  0  0  0
  118.0280  166.2650  155.0340 C   0  0  0  0  0  0  0  0  0  0  0  0
  114.6730  161.4890  162.0650 Cl  0  0  0  0  0  0  0  0  0  0  0  0
  118.8370  164.2110  154.0830 C   0  0  0  0  0  0  0  0  0  0  0  0
  114.4710  163.5260  155.6930 N   0  0  0  0  0  0  0  0  0  0  0  0
  119.5220  166.4250  154.7840 C   0  0  0  0  0  0  0  0  0  0  0  0
  114.8570  165.6570  155.2010 N   0  0  0  0  0  0  0  0  0  0  0  0
  120.0460  165.0240  154.5230 C   0  0  0  0  0  0  0  0  0  0  0  0
  116.9130  164.1790  155.5280 C   0  0  0  0  0  0  0  0  0  0  0  0
  115.4250  164.4530  155.4730 C   0  0  0  0  0  0  0  0  0  0  0  0
  113.2710  164.0980  155.5710 C   0  0  0  0  0  0  0  0  0  0  0  0
  114.6960  162.1190  156.0180 C   0  0  0  0  0  0  0  0  0  0  0  0
  113.5170  165.5160  155.2430 C   0  0  0  0  0  0  0  0  0  0  0  0
  114.6880  161.9570  157.5190 C   0  0  0  0  0  0  0  0  0  0  0  0
  111.9650  163.6400  155.6850 C   0  0  0  0  0  0  0  0  0  0  0  0
  112.4390  166.3710  155.0530 C   0  0  0  0  0  0  0  0  0  0  0  0
  110.9130  164.5290  155.4870 C   0  0  0  0  0  0  0  0  0  0  0  0
  111.1450  165.8690  155.1770 C   0  0  0  0  0  0  0  0  0  0  0  0
  113.6030  161.3530  158.1470 C   0  0  0  0  0  0  0  0  0  0  0  0
  115.7610  162.4200  158.2720 C   0  0  0  0  0  0  0  0  0  0  0  0
  113.5930  161.2080  159.5300 C   0  0  0  0  0  0  0  0  0  0  0  0
  115.7520  162.2740  159.6530 C   0  0  0  0  0  0  0  0  0  0  0  0
  114.6700  161.6690  160.2800 C   0  0  0  0  0  0  0  0  0  0  0  0
  127.6470  117.6320  154.5010 N   0  0  0  0  0  0  0  0  0  0  0  0
  126.3310  118.0300  155.0340 C   0  0  0  0  0  0  0  0  0  0  0  0
  131.1060  114.6760  162.0660 Cl  0  0  0  0  0  0  0  0  0  0  0  0
  128.3850  118.8390  154.0830 C   0  0  0  0  0  0  0  0  0  0  0  0
  129.0700  114.4730  155.6940 N   0  0  0  0  0  0  0  0  0  0  0  0
  126.1710  119.5240  154.7840 C   0  0  0  0  0  0  0  0  0  0  0  0
  126.9390  114.8590  155.2020 N   0  0  0  0  0  0  0  0  0  0  0  0
  127.5720  120.0480  154.5230 C   0  0  0  0  0  0  0  0  0  0  0  0
  128.4170  116.9150  155.5280 C   0  0  0  0  0  0  0  0  0  0  0  0
  128.1430  115.4270  155.4740 C   0  0  0  0  0  0  0  0  0  0  0  0
  128.4980  113.2730  155.5720 C   0  0  0  0  0  0  0  0  0  0  0  0
  130.4770  114.6980  156.0190 C   0  0  0  0  0  0  0  0  0  0  0  0
  127.0800  113.5190  155.2440 C   0  0  0  0  0  0  0  0  0  0  0  0
  130.6390  114.6900  157.5200 C   0  0  0  0  0  0  0  0  0  0  0  0
  128.9560  111.9670  155.6860 C   0  0  0  0  0  0  0  0  0  0  0  0
  126.2250  112.4410  155.0540 C   0  0  0  0  0  0  0  0  0  0  0  0
  128.0670  110.9150  155.4880 C   0  0  0  0  0  0  0  0  0  0  0  0
  126.7270  111.1470  155.1780 C   0  0  0  0  0  0  0  0  0  0  0  0
  131.2420  113.6050  158.1480 C   0  0  0  0  0  0  0  0  0  0  0  0
  130.1750  115.7630  158.2730 C   0  0  0  0  0  0  0  0  0  0  0  0
  131.3870  113.5960  159.5310 C   0  0  0  0  0  0  0  0  0  0  0  0
  130.3210  115.7550  159.6540 C   0  0  0  0  0  0  0  0  0  0  0  0
  130.9260  114.6730  160.2810 C   0  0  0  0  0  0  0  0  0  0  0  0
  1  4  1  0  0  0  0
  1  9  1  0  0  0  0
  1  2  1  0  0  0  0
  2  6  1  0  0  0  0
  3 23  1  0  0  0  0
  4  8  1  0  0  0  0
  5 10  4  0  0  0  0
  5 11  4  0  0  0  0
  6  8  1  0  0  0  0
  7 10  4  0  0  0  0
  7 13  4  0  0  0  0
  9 10  1  0  0  0  0
 11 13  4  0  0  0  0
 11 15  4  0  0  0  0
  5 12  1  0  0  0  0
 12 14  1  0  0  0  0
 13 16  4  0  0  0  0
 14 19  4  0  0  0  0
 14 20  4  0  0  0  0
 15 17  4  0  0  0  0
 16 18  4  0  0  0  0
 17 18  4  0  0  0  0
 19 21  4  0  0  0  0
 20 22  4  0  0  0  0
 21 23  4  0  0  0  0
 22 23  4  0  0  0  0
 24 27  1  0  0  0  0
 24 32  1  0  0  0  0
 24 25  1  0  0  0  0
 25 29  1  0  0  0  0
 26 46  1  0  0  0  0
 27 31  1  0  0  0  0
 28 33  4  0  0  0  0
 28 34  4  0  0  0  0
 29 31  1  0  0  0  0
 30 33  4  0  0  0  0
 30 36  4  0  0  0  0
 32 33  1  0  0  0  0
 34 36  4  0  0  0  0
 34 38  4  0  0  0  0
 28 35  1  0  0  0  0
 35 37  1  0  0  0  0
 36 39  4  0  0  0  0
 37 42  4  0  0  0  0
 37 43  4  0  0  0  0
 38 40  4  0  0  0  0
 39 41  4  0  0  0  0
 40 41  4  0  0  0  0
 42 44  4  0  0  0  0
 43 45  4  0  0  0  0
 44 46  4  0  0  0  0
 45 46  4  0  0  0  0
 47 50  1  0  0  0  0
 47 55  1  0  0  0  0
 47 48  1  0  0  0  0
 48 52  1  0  0  0  0
 49 69  1  0  0  0  0
 50 54  1  0  0  0  0
 51 56  4  0  0  0  0
 51 57  4  0  0  0  0
 52 54  1  0  0  0  0
 53 56  4  0  0  0  0
 53 59  4  0  0  0  0
 55 56  1  0  0  0  0
 57 59  4  0  0  0  0
 57 61  4  0  0  0  0
 51 58  1  0  0  0  0
 58 60  1  0  0  0  0
 59 62  4  0  0  0  0
 60 65  4  0  0  0  0
 60 66  4  0  0  0  0
 61 63  4  0  0  0  0
 62 64  4  0  0  0  0
 63 64  4  0  0  0  0
 65 67  4  0  0  0  0
 66 68  4  0  0  0  0
 67 69  4  0  0  0  0
 68 69  4  0  0  0  0
 70 73  1  0  0  0  0
 70 78  1  0  0  0  0
 70 71  1  0  0  0  0
 71 75  1  0  0  0  0
 72 92  1  0  0  0  0
 73 77  1  0  0  0  0
 74 79  4  0  0  0  0
 74 80  4  0  0  0  0
 75 77  1  0  0  0  0
 76 79  4  0  0  0  0
 76 82  4  0  0  0  0
 78 79  1  0  0  0  0
 80 82  4  0  0  0  0
 80 84  4  0  0  0  0
 74 81  1  0  0  0  0
 81 83  1  0  0  0  0
 82 85  4  0  0  0  0
 83 88  4  0  0  0  0
 83 89  4  0  0  0  0
 84 86  4  0  0  0  0
 85 87  4  0  0  0  0
 86 87  4  0  0  0  0
 88 90  4  0  0  0  0
 89 91  4  0  0  0  0
 90 92  4  0  0  0  0
 91 92  4  0  0  0  0
M  END
$$$$
