7D4P
  PyMOL3.1          3D                             0

 23 26  0  0  0  0  0  0  0  0999 V2000
  164.9470  174.9660  154.5080 N   0  0  0  0  0  0  0  0  0  0  0  0
  166.2630  174.5680  155.0410 C   0  0  0  0  0  0  0  0  0  0  0  0
  161.4860  177.9210  162.0720 Cl  0  0  0  0  0  0  0  0  0  0  0  0
  164.2090  173.7590  154.0890 C   0  0  0  0  0  0  0  0  0  0  0  0
  163.5230  178.1250  155.7010 N   0  0  0  0  0  0  0  0  0  0  0  0
  166.4230  173.0740  154.7910 C   0  0  0  0  0  0  0  0  0  0  0  0
  165.6540  177.7390  155.2090 N   0  0  0  0  0  0  0  0  0  0  0  0
  165.0220  172.5500  154.5300 C   0  0  0  0  0  0  0  0  0  0  0  0
  164.1760  175.6830  155.5350 C   0  0  0  0  0  0  0  0  0  0  0  0
  164.4500  177.1710  155.4810 C   0  0  0  0  0  0  0  0  0  0  0  0
  164.0950  179.3250  155.5790 C   0  0  0  0  0  0  0  0  0  0  0  0
  162.1160  177.9000  156.0250 C   0  0  0  0  0  0  0  0  0  0  0  0
  165.5130  179.0790  155.2510 C   0  0  0  0  0  0  0  0  0  0  0  0
  161.9540  177.9070  157.5260 C   0  0  0  0  0  0  0  0  0  0  0  0
  163.6370  180.6310  155.6930 C   0  0  0  0  0  0  0  0  0  0  0  0
  166.3680  180.1570  155.0610 C   0  0  0  0  0  0  0  0  0  0  0  0
  164.5260  181.6830  155.4950 C   0  0  0  0  0  0  0  0  0  0  0  0
  165.8660  181.4510  155.1850 C   0  0  0  0  0  0  0  0  0  0  0  0
  161.3500  178.9920  158.1540 C   0  0  0  0  0  0  0  0  0  0  0  0
  162.4170  176.8340  158.2790 C   0  0  0  0  0  0  0  0  0  0  0  0
  161.2050  179.0010  159.5370 C   0  0  0  0  0  0  0  0  0  0  0  0
  162.2710  176.8420  159.6600 C   0  0  0  0  0  0  0  0  0  0  0  0
  161.6660  177.9240  160.2870 C   0  0  0  0  0  0  0  0  0  0  0  0
  1  4  1  0  0  0  0
  1  9  1  0  0  0  0
  1  2  1  0  0  0  0
  2  6  1  0  0  0  0
  3 23  1  0  0  0  0
  4  8  1  0  0  0  0
  5 10  4  0  0  0  0
  5 11  4  0  0  0  0
  6  8  1  0  0  0  0
  7 10  4  0  0  0  0
  7 13  4  0  0  0  0
  9 10  1  0  0  0  0
 11 13  4  0  0  0  0
 11 15  4  0  0  0  0
  5 12  1  0  0  0  0
 12 14  1  0  0  0  0
 13 16  4  0  0  0  0
 14 19  4  0  0  0  0
 14 20  4  0  0  0  0
 15 17  4  0  0  0  0
 16 18  4  0  0  0  0
 17 18  4  0  0  0  0
 19 21  4  0  0  0  0
 20 22  4  0  0  0  0
 21 23  4  0  0  0  0
 22 23  4  0  0  0  0
M  END
$$$$
