8I7V
  PyMOL3.1          3D                             0

 11 11  0  0  0  0  0  0  0  0999 V2000
  117.6060  112.3080  163.0240 O   0  0  0  0  0  0  0  0  0  0  0  0
  120.0350  116.1100  159.1140 O   0  0  0  0  0  0  0  0  0  0  0  0
  120.7590  114.0880  159.4730 O   0  0  0  0  0  0  0  0  0  0  0  0
  117.9330  113.5640  162.4960 N   0  0  0  0  0  0  0  0  0  0  0  0
  118.5390  115.9990  161.5050 N   0  0  0  0  0  0  0  0  0  0  0  0
  117.4180  114.6560  163.0240 C   0  0  0  0  0  0  0  0  0  0  0  0
  118.7540  113.6620  161.4690 C   0  0  0  0  0  0  0  0  0  0  0  0
  119.0580  114.9140  160.9660 C   0  0  0  0  0  0  0  0  0  0  0  0
  117.7170  115.9120  162.5300 C   0  0  0  0  0  0  0  0  0  0  0  0
  116.4700  114.5310  164.2090 C   0  0  0  0  0  0  0  0  0  0  0  0
  120.0050  115.0450  159.7820 C   0  0  0  0  0  0  0  0  0  0  0  0
  1  4  1  0  0  0  0
  4  6  2  0  0  0  0
  4  7  1  0  0  0  0
  5  8  1  0  0  0  0
  7  8  2  0  0  0  0
  5  9  2  0  0  0  0
  6  9  1  0  0  0  0
  6 10  1  0  0  0  0
  2 11  2  0  0  0  0
  3 11  1  0  0  0  0
  8 11  1  0  0  0  0
M  END
$$$$
