7SUS
  PyMOL3.1          3D                             0

 37 40  0  0  0  0  0  0  0  0999 V2000
  -39.0900    5.6130   52.1240 C   0  0  0  0  0  0  0  0  0  0  0  0
  -39.9720    6.7590   52.2870 O   0  0  0  0  0  0  0  0  0  0  0  0
  -39.6550    7.9820   51.6260 C   0  0  0  0  0  0  0  0  0  0  0  0
  -38.8740    8.9760   52.3080 C   0  0  0  0  0  0  0  0  0  0  0  0
  -38.5520   10.1960   51.6260 C   0  0  0  0  0  0  0  0  0  0  0  0
  -39.0080   10.4440   50.2850 C   0  0  0  0  0  0  0  0  0  0  0  0
  -39.8030    9.4540   49.6120 C   0  0  0  0  0  0  0  0  0  0  0  0
  -40.2370    9.7070   48.2820 O   0  0  0  0  0  0  0  0  0  0  0  0
  -41.5500   10.2330   48.0090 C   0  0  0  0  0  0  0  0  0  0  0  0
  -40.1400    8.1690   50.2490 C   0  0  0  0  0  0  0  0  0  0  0  0
  -40.9930    7.1470   49.5600 N   0  0  0  0  0  0  0  0  0  0  0  0
  -42.2860    6.6780   50.0250 C   0  0  0  0  0  0  0  0  0  0  0  0
  -43.0580    7.0060   51.2210 N   0  0  0  0  0  0  0  0  0  0  0  0
  -44.1840    6.0320   52.0500 S   0  0  0  0  0  0  0  0  0  0  0  0
  -45.2860    5.7520   51.1390 O   0  0  0  0  0  0  0  0  0  0  0  0
  -44.7260    6.7170   53.1940 O   0  0  0  0  0  0  0  0  0  0  0  0
  -43.3660    4.4650   52.6440 C   0  0  0  0  0  0  0  0  0  0  0  0
  -42.4090    4.7490   53.8310 C   0  0  0  0  0  0  0  0  0  0  0  0
  -44.4550    3.3160   52.9720 C   0  0  0  0  0  0  0  0  0  0  0  0
  -45.1460    3.6900   54.1890 O   0  0  0  0  0  0  0  0  0  0  0  0
  -43.8470    1.8510   53.1090 C   0  0  0  0  0  0  0  0  0  0  0  0
  -43.3470    1.4770   54.3690 N   0  0  0  0  0  0  0  0  0  0  0  0
  -42.7970    0.2080   54.5430 C   0  0  0  0  0  0  0  0  0  0  0  0
  -42.7360   -0.7270   53.4510 C   0  0  0  0  0  0  0  0  0  0  0  0
  -42.1430   -2.1030   53.6390 C   0  0  0  0  0  0  0  0  0  0  0  0
  -43.2670   -0.2810   52.1910 C   0  0  0  0  0  0  0  0  0  0  0  0
  -43.7970    0.9810   52.0560 N   0  0  0  0  0  0  0  0  0  0  0  0
  -42.7200    5.7560   49.0820 N   0  0  0  0  0  0  0  0  0  0  0  0
  -41.7800    5.6450   48.0700 N   0  0  0  0  0  0  0  0  0  0  0  0
  -40.6820    6.4860   48.3050 C   0  0  0  0  0  0  0  0  0  0  0  0
  -39.4780    6.5490   47.2930 C   0  0  0  0  0  0  0  0  0  0  0  0
  -38.1690    7.0110   47.7290 C   0  0  0  0  0  0  0  0  0  0  0  0
  -37.0900    7.0430   46.7590 C   0  0  0  0  0  0  0  0  0  0  0  0
  -37.2990    6.6160   45.4270 C   0  0  0  0  0  0  0  0  0  0  0  0
  -38.6190    6.1520   45.0490 C   0  0  0  0  0  0  0  0  0  0  0  0
  -38.9090    5.6680   43.6000 C   0  0  0  0  0  0  0  0  0  0  0  0
  -39.6320    6.1360   45.9890 N   0  0  0  0  0  0  0  0  0  0  0  0
  1  2  1  0  0  0  0
  2  3  1  0  0  0  0
  3  4  1  0  0  0  0
  4  5  2  0  0  0  0
  5  6  1  0  0  0  0
  6  7  2  0  0  0  0
  7  8  1  0  0  0  0
  8  9  1  0  0  0  0
  3 10  2  0  0  0  0
  7 10  1  0  0  0  0
 10 11  1  0  0  0  0
 11 12  1  0  0  0  0
 12 13  1  0  0  0  0
 13 14  1  0  0  0  0
 14 15  2  0  0  0  0
 14 16  2  0  0  0  0
 14 17  1  0  0  0  0
 17 18  1  0  0  0  0
 17 19  1  0  0  0  0
 19 20  1  0  0  0  0
 19 21  1  0  0  0  0
 21 22  2  0  0  0  0
 22 23  1  0  0  0  0
 23 24  2  0  0  0  0
 24 25  1  0  0  0  0
 24 26  1  0  0  0  0
 21 27  1  0  0  0  0
 26 27  2  0  0  0  0
 12 28  2  0  0  0  0
 28 29  1  0  0  0  0
 11 30  1  0  0  0  0
 29 30  2  0  0  0  0
 30 31  1  0  0  0  0
 31 32  1  0  0  0  0
 32 33  2  0  0  0  0
 33 34  1  0  0  0  0
 34 35  2  0  0  0  0
 35 36  1  0  0  0  0
 31 37  2  0  0  0  0
 35 37  1  0  0  0  0
M  END
$$$$
