8E9W
  PyMOL3.1          3D                             0

 22 25  0  0  0  0  0  0  0  0999 V2000
  129.2280  125.6180  154.7050 C   0  0  0  0  0  0  0  0  0  0  0  0
  130.4920  125.6580  154.4710 N   0  0  0  0  0  0  0  0  0  0  0  0
  131.1610  125.9430  155.6330 C   0  0  0  0  0  0  0  0  0  0  0  0
  132.6660  126.1470  155.4310 C   0  0  0  0  0  0  0  0  0  0  0  0
  132.9360  127.1290  154.4030 N   0  0  0  0  0  0  0  0  0  0  0  0
  133.8180  128.3170  154.6460 C   0  0  0  0  0  0  0  0  0  0  0  0
  134.3660  128.3950  155.9880 N   0  0  0  0  0  0  0  0  0  0  0  0
  135.2440  129.3600  156.6680 C   0  0  0  0  0  0  0  0  0  0  0  0
  135.1660  130.6860  156.3740 C   0  0  0  0  0  0  0  0  0  0  0  0
  136.0060  131.6330  157.0270 C   0  0  0  0  0  0  0  0  0  0  0  0
  136.8990  131.1980  157.9960 C   0  0  0  0  0  0  0  0  0  0  0  0
  136.9720  129.8350  158.3180 C   0  0  0  0  0  0  0  0  0  0  0  0
  136.1540  128.9170  157.6690 C   0  0  0  0  0  0  0  0  0  0  0  0
  134.2350  131.1680  155.3400 N   0  0  0  0  0  0  0  0  0  0  0  0
  134.3150  130.7510  153.9230 C   0  0  0  0  0  0  0  0  0  0  0  0
  134.6090  131.7330  152.9440 C   0  0  0  0  0  0  0  0  0  0  0  0
  134.7030  131.3610  151.6040 C   0  0  0  0  0  0  0  0  0  0  0  0
  134.5150  130.0150  151.2340 C   0  0  0  0  0  0  0  0  0  0  0  0
  134.2400  129.0460  152.2100 C   0  0  0  0  0  0  0  0  0  0  0  0
  134.1370  129.4200  153.5710 C   0  0  0  0  0  0  0  0  0  0  0  0
  132.2290  126.7500  153.1910 C   0  0  0  0  0  0  0  0  0  0  0  0
  130.7370  126.5450  153.4540 C   0  0  0  0  0  0  0  0  0  0  0  0
  1  2  1  0  0  0  0
  2  3  1  0  0  0  0
  3  4  1  0  0  0  0
  4  5  1  0  0  0  0
  5  6  1  0  0  0  0
  6  7  2  0  0  0  0
  7  8  1  0  0  0  0
  8  9  2  0  0  0  0
  9 10  1  0  0  0  0
 10 11  2  0  0  0  0
 11 12  1  0  0  0  0
  8 13  1  0  0  0  0
 12 13  2  0  0  0  0
  9 14  1  0  0  0  0
 14 15  1  0  0  0  0
 15 16  2  0  0  0  0
 16 17  1  0  0  0  0
 17 18  2  0  0  0  0
 18 19  1  0  0  0  0
  6 20  1  0  0  0  0
 15 20  1  0  0  0  0
 19 20  2  0  0  0  0
  5 21  1  0  0  0  0
  2 22  1  0  0  0  0
 21 22  1  0  0  0  0
M  END
$$$$
