8JTB
  PyMOL3.1          3D                             0

 11 11  0  0  0  0  0  0  0  0999 V2000
  133.2830  136.1750  122.5370 C   0  0  0  0  0  0  0  0  0  0  0  0
  135.1460  136.8030  125.7590 N   0  0  0  0  0  0  0  0  0  0  0  0
  133.1640  137.9250  119.3050 O   0  0  0  0  0  0  0  0  0  0  0  0
  133.6670  136.9260  121.4420 C   0  0  0  0  0  0  0  0  0  0  0  0
  130.5910  136.8840  119.4350 O   0  0  0  0  0  0  0  0  0  0  0  0
  132.7730  137.1620  120.4130 C   0  0  0  0  0  0  0  0  0  0  0  0
  131.4930  136.6450  120.4770 C   0  0  0  0  0  0  0  0  0  0  0  0
  131.1050  135.8910  121.5680 C   0  0  0  0  0  0  0  0  0  0  0  0
  132.0010  135.6570  122.5970 C   0  0  0  0  0  0  0  0  0  0  0  0
  134.2700  135.9130  123.6730 C   0  0  0  0  0  0  0  0  0  0  0  0
  134.1130  136.9800  124.7530 C   0  0  0  0  0  0  0  0  0  0  0  0
  1  4  2  0  0  0  0
  3  6  1  0  0  0  0
  4  6  1  0  0  0  0
  5  7  1  0  0  0  0
  6  7  2  0  0  0  0
  7  8  1  0  0  0  0
  1  9  1  0  0  0  0
  8  9  2  0  0  0  0
  1 10  1  0  0  0  0
  2 11  1  0  0  0  0
 10 11  1  0  0  0  0
M  END
$$$$
