6UEL
  PyMOL3.1          3D                             0

 27 29  0  0  0  0  0  0  0  0999 V2000
   69.9300   57.4930   41.0960 C   0  0  0  0  0  0  0  0  0  0  0  0
   68.9860   56.6130   40.4210 N   0  0  0  0  0  0  0  0  0  0  0  0
   68.1550   55.7000   38.6170 O   0  0  0  0  0  0  0  0  0  0  0  0
   74.2100   61.3130   34.4920 S   0  0  0  0  0  0  0  0  0  0  0  0
   68.3770   55.6450   41.3470 C   0  0  0  0  0  0  0  0  0  0  0  0
   69.2290   57.6710   38.2970 N   0  0  0  0  0  0  0  0  0  0  0  0
   72.5460   60.6910   36.5490 O   0  0  0  0  0  0  0  0  0  0  0  0
   67.5640   56.3700   42.3290 C   0  0  0  0  0  0  0  0  0  0  0  0
   71.5710   60.4090   34.5670 N   0  0  0  0  0  0  0  0  0  0  0  0
   66.9750   55.6180   43.3470 C   0  0  0  0  0  0  0  0  0  0  0  0
   72.4990   61.1240   32.5770 N   0  0  0  0  0  0  0  0  0  0  0  0
   66.2250   56.1650   44.3580 C   0  0  0  0  0  0  0  0  0  0  0  0
   66.0590   57.5210   44.3710 C   0  0  0  0  0  0  0  0  0  0  0  0
   66.5950   58.3200   43.3860 C   0  0  0  0  0  0  0  0  0  0  0  0
   67.3410   57.7390   42.3660 C   0  0  0  0  0  0  0  0  0  0  0  0
   68.8000   56.6350   39.0990 C   0  0  0  0  0  0  0  0  0  0  0  0
   69.6770   59.0390   38.7090 C   0  0  0  0  0  0  0  0  0  0  0  0
   70.6120   59.8130   37.9500 C   0  0  0  0  0  0  0  0  0  0  0  0
   70.4100   59.6200   36.5030 C   0  0  0  0  0  0  0  0  0  0  0  0
   70.3670   58.1060   36.2140 C   0  0  0  0  0  0  0  0  0  0  0  0
   69.0640   57.6180   36.8540 C   0  0  0  0  0  0  0  0  0  0  0  0
   71.6210   60.2830   35.8720 C   0  0  0  0  0  0  0  0  0  0  0  0
   72.6000   60.9060   33.8810 C   0  0  0  0  0  0  0  0  0  0  0  0
   73.6380   61.5500   32.0630 C   0  0  0  0  0  0  0  0  0  0  0  0
   73.7200   61.8190   30.5850 C   0  0  0  0  0  0  0  0  0  0  0  0
   74.6940   61.7440   32.9080 C   0  0  0  0  0  0  0  0  0  0  0  0
   65.3490   58.0670   45.3430 F   0  0  0  0  0  0  0  0  0  0  0  0
  1  2  1  0  0  0  0
  2  5  1  0  0  0  0
  5  8  1  0  0  0  0
  8 10  1  0  0  0  0
 10 12  2  0  0  0  0
 12 13  1  0  0  0  0
 13 14  2  0  0  0  0
  8 15  2  0  0  0  0
 14 15  1  0  0  0  0
  2 16  1  0  0  0  0
  3 16  2  0  0  0  0
  6 16  1  0  0  0  0
  6 17  1  0  0  0  0
 17 18  1  0  0  0  0
 18 19  1  0  0  0  0
 19 20  1  0  0  0  0
  6 21  1  0  0  0  0
 20 21  1  0  0  0  0
  7 22  2  0  0  0  0
  9 22  1  0  0  0  0
 19 22  1  0  0  0  0
  4 23  1  0  0  0  0
  9 23  1  0  0  0  0
 11 23  2  0  0  0  0
 11 24  1  0  0  0  0
 24 25  1  0  0  0  0
  4 26  1  0  0  0  0
 24 26  2  0  0  0  0
 13 27  1  0  0  0  0
M  END
$$$$
