6UEL
  PyMOL3.1          3D                             0

 54 58  0  0  0  0  0  0  0  0999 V2000
   69.9300   57.4930   41.0960 C   0  0  0  0  0  0  0  0  0  0  0  0
   68.9860   56.6130   40.4210 N   0  0  0  0  0  0  0  0  0  0  0  0
   68.1550   55.7000   38.6170 O   0  0  0  0  0  0  0  0  0  0  0  0
   74.2100   61.3130   34.4920 S   0  0  0  0  0  0  0  0  0  0  0  0
   68.3770   55.6450   41.3470 C   0  0  0  0  0  0  0  0  0  0  0  0
   69.2290   57.6710   38.2970 N   0  0  0  0  0  0  0  0  0  0  0  0
   72.5460   60.6910   36.5490 O   0  0  0  0  0  0  0  0  0  0  0  0
   67.5640   56.3700   42.3290 C   0  0  0  0  0  0  0  0  0  0  0  0
   71.5710   60.4090   34.5670 N   0  0  0  0  0  0  0  0  0  0  0  0
   66.9750   55.6180   43.3470 C   0  0  0  0  0  0  0  0  0  0  0  0
   72.4990   61.1240   32.5770 N   0  0  0  0  0  0  0  0  0  0  0  0
   66.2250   56.1650   44.3580 C   0  0  0  0  0  0  0  0  0  0  0  0
   66.0590   57.5210   44.3710 C   0  0  0  0  0  0  0  0  0  0  0  0
   66.5950   58.3200   43.3860 C   0  0  0  0  0  0  0  0  0  0  0  0
   67.3410   57.7390   42.3660 C   0  0  0  0  0  0  0  0  0  0  0  0
   68.8000   56.6350   39.0990 C   0  0  0  0  0  0  0  0  0  0  0  0
   69.6770   59.0390   38.7090 C   0  0  0  0  0  0  0  0  0  0  0  0
   70.6120   59.8130   37.9500 C   0  0  0  0  0  0  0  0  0  0  0  0
   70.4100   59.6200   36.5030 C   0  0  0  0  0  0  0  0  0  0  0  0
   70.3670   58.1060   36.2140 C   0  0  0  0  0  0  0  0  0  0  0  0
   69.0640   57.6180   36.8540 C   0  0  0  0  0  0  0  0  0  0  0  0
   71.6210   60.2830   35.8720 C   0  0  0  0  0  0  0  0  0  0  0  0
   72.6000   60.9060   33.8810 C   0  0  0  0  0  0  0  0  0  0  0  0
   73.6380   61.5500   32.0630 C   0  0  0  0  0  0  0  0  0  0  0  0
   73.7200   61.8190   30.5850 C   0  0  0  0  0  0  0  0  0  0  0  0
   74.6940   61.7440   32.9080 C   0  0  0  0  0  0  0  0  0  0  0  0
   65.3490   58.0670   45.3430 F   0  0  0  0  0  0  0  0  0  0  0  0
   49.6060   -0.3820    7.0290 C   0  0  0  0  0  0  0  0  0  0  0  0
   48.5640   -1.3500    6.6360 N   0  0  0  0  0  0  0  0  0  0  0  0
   47.5870   -2.7490    5.1860 O   0  0  0  0  0  0  0  0  0  0  0  0
   53.7520    0.9340   -0.5140 S   0  0  0  0  0  0  0  0  0  0  0  0
   47.8750   -1.8890    7.7730 C   0  0  0  0  0  0  0  0  0  0  0  0
   48.7730   -1.1160    4.2500 N   0  0  0  0  0  0  0  0  0  0  0  0
   52.2150    1.1030    1.5680 O   0  0  0  0  0  0  0  0  0  0  0  0
   47.1180   -0.8990    8.4920 C   0  0  0  0  0  0  0  0  0  0  0  0
   51.1430    0.1950   -0.1760 N   0  0  0  0  0  0  0  0  0  0  0  0
   46.5050   -1.2950    9.6870 C   0  0  0  0  0  0  0  0  0  0  0  0
   52.1240    0.1100   -2.2520 N   0  0  0  0  0  0  0  0  0  0  0  0
   45.7300   -0.4120   10.4550 C   0  0  0  0  0  0  0  0  0  0  0  0
   45.5780    0.9010   10.0410 C   0  0  0  0  0  0  0  0  0  0  0  0
   46.1620    1.3140    8.8680 C   0  0  0  0  0  0  0  0  0  0  0  0
   46.8810    0.4160    8.0900 C   0  0  0  0  0  0  0  0  0  0  0  0
   48.3430   -1.7810    5.3550 C   0  0  0  0  0  0  0  0  0  0  0  0
   49.6070    0.1060    4.3030 C   0  0  0  0  0  0  0  0  0  0  0  0
   49.9700    0.8410    3.0790 C   0  0  0  0  0  0  0  0  0  0  0  0
   49.9990    0.0350    1.8790 C   0  0  0  0  0  0  0  0  0  0  0  0
   49.9810   -1.4990    2.1710 C   0  0  0  0  0  0  0  0  0  0  0  0
   48.6400   -1.7050    2.8910 C   0  0  0  0  0  0  0  0  0  0  0  0
   51.2520    0.4880    1.0770 C   0  0  0  0  0  0  0  0  0  0  0  0
   52.1850    0.4040   -0.9710 C   0  0  0  0  0  0  0  0  0  0  0  0
   53.2480    0.3110   -2.9060 C   0  0  0  0  0  0  0  0  0  0  0  0
   53.3220    0.0330   -4.4200 C   0  0  0  0  0  0  0  0  0  0  0  0
   54.2760    0.7850   -2.1490 C   0  0  0  0  0  0  0  0  0  0  0  0
   44.9290    1.7380   10.7310 F   0  0  0  0  0  0  0  0  0  0  0  0
  1  2  1  0  0  0  0
  2  5  1  0  0  0  0
  5  8  1  0  0  0  0
  8 10  1  0  0  0  0
 10 12  2  0  0  0  0
 12 13  1  0  0  0  0
 13 14  2  0  0  0  0
  8 15  2  0  0  0  0
 14 15  1  0  0  0  0
  2 16  1  0  0  0  0
  3 16  2  0  0  0  0
  6 16  1  0  0  0  0
  6 17  1  0  0  0  0
 17 18  1  0  0  0  0
 18 19  1  0  0  0  0
 19 20  1  0  0  0  0
  6 21  1  0  0  0  0
 20 21  1  0  0  0  0
  7 22  2  0  0  0  0
  9 22  1  0  0  0  0
 19 22  1  0  0  0  0
  4 23  1  0  0  0  0
  9 23  1  0  0  0  0
 11 23  2  0  0  0  0
 11 24  1  0  0  0  0
 24 25  1  0  0  0  0
  4 26  1  0  0  0  0
 24 26  2  0  0  0  0
 13 27  1  0  0  0  0
 28 29  1  0  0  0  0
 29 32  1  0  0  0  0
 32 35  1  0  0  0  0
 35 37  1  0  0  0  0
 37 39  2  0  0  0  0
 39 40  1  0  0  0  0
 40 41  2  0  0  0  0
 35 42  2  0  0  0  0
 41 42  1  0  0  0  0
 29 43  1  0  0  0  0
 30 43  2  0  0  0  0
 33 43  1  0  0  0  0
 33 44  1  0  0  0  0
 44 45  1  0  0  0  0
 45 46  1  0  0  0  0
 46 47  1  0  0  0  0
 33 48  1  0  0  0  0
 47 48  1  0  0  0  0
 34 49  2  0  0  0  0
 36 49  1  0  0  0  0
 46 49  1  0  0  0  0
 31 50  1  0  0  0  0
 36 50  1  0  0  0  0
 38 50  2  0  0  0  0
 38 51  1  0  0  0  0
 51 52  1  0  0  0  0
 31 53  1  0  0  0  0
 51 53  2  0  0  0  0
 40 54  1  0  0  0  0
M  END
$$$$
