8VLS
  PyMOL3.1          3D                             0

300324  0  0  0  0  0  0  0  0999 V2000
  148.6750  115.4340  123.7730 C   0  0  0  0  0  0  0  0  0  0  0  0
  147.2270  115.6830  123.9770 N   0  0  0  0  0  0  0  0  0  0  0  0
  147.5600  116.9820  125.8240 O   0  0  0  0  0  0  0  0  0  0  0  0
  147.8840  112.8740  123.2970 S   0  0  0  0  0  0  0  0  0  0  0  0
  149.6960  116.5750  123.9140 C   0  0  0  0  0  0  0  0  0  0  0  0
  144.9170  114.9870  126.9600 N   0  0  0  0  0  0  0  0  0  0  0  0
  143.2580  114.1880  125.1860 O   0  0  0  0  0  0  0  0  0  0  0  0
  150.9890  116.3320  123.7310 C   0  0  0  0  0  0  0  0  0  0  0  0
  151.4630  114.9040  123.3770 C   0  0  0  0  0  0  0  0  0  0  0  0
  150.5810  113.9200  123.2560 C   0  0  0  0  0  0  0  0  0  0  0  0
  149.0890  114.2020  123.4680 C   0  0  0  0  0  0  0  0  0  0  0  0
  148.1870  111.6350  124.5810 C   0  0  0  0  0  0  0  0  0  0  0  0
  147.5030  110.3790  124.2050 C   0  0  0  0  0  0  0  0  0  0  0  0
  146.7820  116.5130  125.0960 C   0  0  0  0  0  0  0  0  0  0  0  0
  145.2610  116.7740  125.3120 C   0  0  0  0  0  0  0  0  0  0  0  0
  144.8920  116.4320  126.7650 C   0  0  0  0  0  0  0  0  0  0  0  0
  144.2280  113.9880  126.1910 C   0  0  0  0  0  0  0  0  0  0  0  0
  144.8430  112.5250  126.7680 C   0  0  0  0  0  0  0  0  0  0  0  0
  145.7070  112.9050  127.7560 C   0  0  0  0  0  0  0  0  0  0  0  0
  145.6240  114.3170  127.7620 C   0  0  0  0  0  0  0  0  0  0  0  0
  144.6450  111.0410  126.4430 C   0  0  0  0  0  0  0  0  0  0  0  0
  145.3220  110.1110  127.1310 C   0  0  0  0  0  0  0  0  0  0  0  0
  146.3100  110.5430  128.2610 C   0  0  0  0  0  0  0  0  0  0  0  0
  146.4810  111.8380  128.5430 C   0  0  0  0  0  0  0  0  0  0  0  0
  143.4770  116.9610  127.0570 C   0  0  0  0  0  0  0  0  0  0  0  0
  126.0570  109.0510  123.7710 C   0  0  0  0  0  0  0  0  0  0  0  0
  125.5430  110.4270  123.9750 N   0  0  0  0  0  0  0  0  0  0  0  0
  126.8390  110.7960  125.8180 O   0  0  0  0  0  0  0  0  0  0  0  0
  123.4490  108.4400  123.2790 S   0  0  0  0  0  0  0  0  0  0  0  0
  127.5570  108.7440  123.9180 C   0  0  0  0  0  0  0  0  0  0  0  0
  123.7780  112.0960  126.9650 N   0  0  0  0  0  0  0  0  0  0  0  0
  122.2630  113.1520  125.1980 O   0  0  0  0  0  0  0  0  0  0  0  0
  128.0000  107.5060  123.7350 C   0  0  0  0  0  0  0  0  0  0  0  0
  127.0090  106.3760  123.3740 C   0  0  0  0  0  0  0  0  0  0  0  0
  125.7150  106.6430  123.2470 C   0  0  0  0  0  0  0  0  0  0  0  0
  125.2040  108.0730  123.4590 C   0  0  0  0  0  0  0  0  0  0  0  0
  122.5340  107.5900  124.5880 C   0  0  0  0  0  0  0  0  0  0  0  0
  121.0970  107.5700  124.2370 C   0  0  0  0  0  0  0  0  0  0  0  0
  126.0400  111.2310  125.0920 C   0  0  0  0  0  0  0  0  0  0  0  0
  125.4990  112.6750  125.3100 C   0  0  0  0  0  0  0  0  0  0  0  0
  125.0270  112.8230  126.7660 C   0  0  0  0  0  0  0  0  0  0  0  0
  122.5710  112.2020  126.1950 C   0  0  0  0  0  0  0  0  0  0  0  0
  121.6070  110.9360  126.7590 C   0  0  0  0  0  0  0  0  0  0  0  0
  122.3640  110.3690  127.7450 C   0  0  0  0  0  0  0  0  0  0  0  0
  123.5460  111.1430  127.7610 C   0  0  0  0  0  0  0  0  0  0  0  0
  120.2220  110.3710  126.4260 C   0  0  0  0  0  0  0  0  0  0  0  0
  119.7510  109.3140  127.1050 C   0  0  0  0  0  0  0  0  0  0  0  0
  120.6150  108.6650  128.2320 C   0  0  0  0  0  0  0  0  0  0  0  0
  121.8220  109.1600  128.5210 C   0  0  0  0  0  0  0  0  0  0  0  0
  124.7990  114.3150  127.0670 C   0  0  0  0  0  0  0  0  0  0  0  0
  109.1440  125.3910  123.7530 C   0  0  0  0  0  0  0  0  0  0  0  0
  110.0250  126.5720  123.9370 N   0  0  0  0  0  0  0  0  0  0  0  0
  111.1170  125.6640  125.7300 O   0  0  0  0  0  0  0  0  0  0  0  0
  107.1870  127.2130  123.1650 S   0  0  0  0  0  0  0  0  0  0  0  0
  109.7030  123.9720  123.9530 C   0  0  0  0  0  0  0  0  0  0  0  0
  110.6600  129.0020  126.9480 N   0  0  0  0  0  0  0  0  0  0  0  0
  110.8060  130.8850  125.2240 O   0  0  0  0  0  0  0  0  0  0  0  0
  108.9140  122.9170  123.7920 C   0  0  0  0  0  0  0  0  0  0  0  0
  107.4330  123.1160  123.4010 C   0  0  0  0  0  0  0  0  0  0  0  0
  106.9520  124.3400  123.2290 C   0  0  0  0  0  0  0  0  0  0  0  0
  107.8610  125.5590  123.4160 C   0  0  0  0  0  0  0  0  0  0  0  0
  106.1800  127.6900  124.5900 C   0  0  0  0  0  0  0  0  0  0  0  0
  105.4980  128.9690  124.2910 C   0  0  0  0  0  0  0  0  0  0  0  0
  111.0150  126.5790  125.0160 C   0  0  0  0  0  0  0  0  0  0  0  0
  111.9440  127.8130  125.2170 C   0  0  0  0  0  0  0  0  0  0  0  0
  111.8880  128.2570  126.6880 C   0  0  0  0  0  0  0  0  0  0  0  0
  110.1410  130.1160  126.2030 C   0  0  0  0  0  0  0  0  0  0  0  0
  108.5620  130.2950  126.7700 C   0  0  0  0  0  0  0  0  0  0  0  0
  108.4560  129.3370  127.7390 C   0  0  0  0  0  0  0  0  0  0  0  0
  109.7230  128.7100  127.7420 C   0  0  0  0  0  0  0  0  0  0  0  0
  107.3740  131.2100  126.4520 C   0  0  0  0  0  0  0  0  0  0  0  0
  106.2250  131.0690  127.1280 C   0  0  0  0  0  0  0  0  0  0  0  0
  106.1020  129.9750  128.2360 C   0  0  0  0  0  0  0  0  0  0  0  0
  107.1390  129.1790  128.5110 C   0  0  0  0  0  0  0  0  0  0  0  0
  113.0990  129.1610  126.9810 C   0  0  0  0  0  0  0  0  0  0  0  0
  115.0050  148.2520  123.7710 C   0  0  0  0  0  0  0  0  0  0  0  0
  116.4540  148.0100  123.9760 N   0  0  0  0  0  0  0  0  0  0  0  0
  116.1260  146.7000  125.8170 O   0  0  0  0  0  0  0  0  0  0  0  0
  115.7800  150.8170  123.2850 S   0  0  0  0  0  0  0  0  0  0  0  0
  113.9900  147.1060  123.9160 C   0  0  0  0  0  0  0  0  0  0  0  0
  118.7650  148.7030  126.9670 N   0  0  0  0  0  0  0  0  0  0  0  0
  120.4270  149.5090  125.2000 O   0  0  0  0  0  0  0  0  0  0  0  0
  112.6960  147.3410  123.7320 C   0  0  0  0  0  0  0  0  0  0  0  0
  112.2130  148.7650  123.3730 C   0  0  0  0  0  0  0  0  0  0  0  0
  113.0900  149.7530  123.2490 C   0  0  0  0  0  0  0  0  0  0  0  0
  114.5840  149.4810  123.4610 C   0  0  0  0  0  0  0  0  0  0  0  0
  115.4920  152.0410  124.5860 C   0  0  0  0  0  0  0  0  0  0  0  0
  116.1760  153.3010  124.2200 C   0  0  0  0  0  0  0  0  0  0  0  0
  116.9020  147.1770  125.0910 C   0  0  0  0  0  0  0  0  0  0  0  0
  118.4240  146.9240  125.3100 C   0  0  0  0  0  0  0  0  0  0  0  0
  118.7870  147.2590  126.7650 C   0  0  0  0  0  0  0  0  0  0  0  0
  119.4520  149.7050  126.2010 C   0  0  0  0  0  0  0  0  0  0  0  0
  118.8310  151.1660  126.7780 C   0  0  0  0  0  0  0  0  0  0  0  0
  117.9660  150.7820  127.7630 C   0  0  0  0  0  0  0  0  0  0  0  0
  118.0520  149.3710  127.7680 C   0  0  0  0  0  0  0  0  0  0  0  0
  119.0260  152.6510  126.4540 C   0  0  0  0  0  0  0  0  0  0  0  0
  118.3440  153.5780  127.1410 C   0  0  0  0  0  0  0  0  0  0  0  0
  117.3540  153.1420  128.2680 C   0  0  0  0  0  0  0  0  0  0  0  0
  117.1860  151.8460  128.5480 C   0  0  0  0  0  0  0  0  0  0  0  0
  120.2010  146.7260  127.0610 C   0  0  0  0  0  0  0  0  0  0  0  0
  137.6190  154.6310  123.7660 C   0  0  0  0  0  0  0  0  0  0  0  0
  138.1250  153.2510  123.9650 N   0  0  0  0  0  0  0  0  0  0  0  0
  136.8470  152.8940  125.8220 O   0  0  0  0  0  0  0  0  0  0  0  0
  140.2320  155.2310  123.2970 S   0  0  0  0  0  0  0  0  0  0  0  0
  136.1190  154.9440  123.9070 C   0  0  0  0  0  0  0  0  0  0  0  0
  139.8900  151.5730  126.9560 N   0  0  0  0  0  0  0  0  0  0  0  0
  141.4050  150.5190  125.1870 O   0  0  0  0  0  0  0  0  0  0  0  0
  135.6840  156.1860  123.7290 C   0  0  0  0  0  0  0  0  0  0  0  0
  136.6830  157.3130  123.3820 C   0  0  0  0  0  0  0  0  0  0  0  0
  137.9760  157.0410  123.2620 C   0  0  0  0  0  0  0  0  0  0  0  0
  138.4780  155.6070  123.4670 C   0  0  0  0  0  0  0  0  0  0  0  0
  141.1500  156.0990  124.5930 C   0  0  0  0  0  0  0  0  0  0  0  0
  142.5840  156.1210  124.2330 C   0  0  0  0  0  0  0  0  0  0  0  0
  137.6350  152.4520  125.0870 C   0  0  0  0  0  0  0  0  0  0  0  0
  138.1670  151.0040  125.3000 C   0  0  0  0  0  0  0  0  0  0  0  0
  138.6410  150.8470  126.7540 C   0  0  0  0  0  0  0  0  0  0  0  0
  141.0970  151.4680  126.1860 C   0  0  0  0  0  0  0  0  0  0  0  0
  142.0610  152.7330  126.7520 C   0  0  0  0  0  0  0  0  0  0  0  0
  141.3040  153.3000  127.7390 C   0  0  0  0  0  0  0  0  0  0  0  0
  140.1210  152.5250  127.7520 C   0  0  0  0  0  0  0  0  0  0  0  0
  143.4470  153.2990  126.4200 C   0  0  0  0  0  0  0  0  0  0  0  0
  143.9180  154.3540  127.1000 C   0  0  0  0  0  0  0  0  0  0  0  0
  143.0540  155.0030  128.2280 C   0  0  0  0  0  0  0  0  0  0  0  0
  141.8460  154.5080  128.5160 C   0  0  0  0  0  0  0  0  0  0  0  0
  138.8690  149.3530  127.0460 C   0  0  0  0  0  0  0  0  0  0  0  0
  154.4870  138.2390  123.7650 C   0  0  0  0  0  0  0  0  0  0  0  0
  153.5420  137.1120  123.9600 N   0  0  0  0  0  0  0  0  0  0  0  0
  152.5780  138.0450  125.8070 O   0  0  0  0  0  0  0  0  0  0  0  0
  156.3050  136.2700  123.2810 S   0  0  0  0  0  0  0  0  0  0  0  0
  154.0140  139.6950  123.9120 C   0  0  0  0  0  0  0  0  0  0  0  0
  152.9500  134.7430  126.9410 N   0  0  0  0  0  0  0  0  0  0  0  0
  152.7860  132.9000  125.1780 O   0  0  0  0  0  0  0  0  0  0  0  0
  154.8750  140.6900  123.7370 C   0  0  0  0  0  0  0  0  0  0  0  0
  156.3480  140.3840  123.3850 C   0  0  0  0  0  0  0  0  0  0  0  0
  156.7540  139.1270  123.2580 C   0  0  0  0  0  0  0  0  0  0  0  0
  155.7600  137.9780  123.4610 C   0  0  0  0  0  0  0  0  0  0  0  0
  157.4950  135.8930  124.5900 C   0  0  0  0  0  0  0  0  0  0  0  0
  158.2080  134.6430  124.2470 C   0  0  0  0  0  0  0  0  0  0  0  0
  152.5950  137.1400  125.0750 C   0  0  0  0  0  0  0  0  0  0  0  0
  151.6050  135.9560  125.2830 C   0  0  0  0  0  0  0  0  0  0  0  0
  151.6990  135.4660  126.7360 C   0  0  0  0  0  0  0  0  0  0  0  0
  153.4570  133.6390  126.1760 C   0  0  0  0  0  0  0  0  0  0  0  0
  155.0320  133.4280  126.7460 C   0  0  0  0  0  0  0  0  0  0  0  0
  155.1490  134.3700  127.7290 C   0  0  0  0  0  0  0  0  0  0  0  0
  153.8910  135.0170  127.7370 C   0  0  0  0  0  0  0  0  0  0  0  0
  156.2080  132.5010  126.4200 C   0  0  0  0  0  0  0  0  0  0  0  0
  157.3570  132.6150  127.1020 C   0  0  0  0  0  0  0  0  0  0  0  0
  157.4930  133.6920  128.2250 C   0  0  0  0  0  0  0  0  0  0  0  0
  156.4660  134.4990  128.5080 C   0  0  0  0  0  0  0  0  0  0  0  0
  150.5160  134.5230  127.0210 C   0  0  0  0  0  0  0  0  0  0  0  0
  137.6210  109.0270  139.9220 C   0  0  0  0  0  0  0  0  0  0  0  0
  138.1450  110.4020  139.7300 N   0  0  0  0  0  0  0  0  0  0  0  0
  136.8510  110.7950  137.8910 O   0  0  0  0  0  0  0  0  0  0  0  0
  140.2230  108.3800  140.4070 S   0  0  0  0  0  0  0  0  0  0  0  0
  136.1170  108.7380  139.7720 C   0  0  0  0  0  0  0  0  0  0  0  0
  139.9030  112.1390  136.7160 N   0  0  0  0  0  0  0  0  0  0  0  0
  141.4330  113.2370  138.4450 O   0  0  0  0  0  0  0  0  0  0  0  0
  135.6620  107.5020  139.9430 C   0  0  0  0  0  0  0  0  0  0  0  0
  136.6410  106.3590  140.2920 C   0  0  0  0  0  0  0  0  0  0  0  0
  137.9380  106.6110  140.4200 C   0  0  0  0  0  0  0  0  0  0  0  0
  138.4640  108.0370  140.2230 C   0  0  0  0  0  0  0  0  0  0  0  0
  141.1200  107.5830  139.0510 C   0  0  0  0  0  0  0  0  0  0  0  0
  142.5690  107.6200  139.3440 C   0  0  0  0  0  0  0  0  0  0  0  0
  137.6530  111.2180  138.6210 C   0  0  0  0  0  0  0  0  0  0  0  0
  138.2030  112.6610  138.4140 C   0  0  0  0  0  0  0  0  0  0  0  0
  138.6410  112.8320  136.9510 C   0  0  0  0  0  0  0  0  0  0  0  0
  141.1180  112.2630  137.4730 C   0  0  0  0  0  0  0  0  0  0  0  0
  142.0790  110.9860  136.9300 C   0  0  0  0  0  0  0  0  0  0  0  0
  141.3110  110.3890  135.9710 C   0  0  0  0  0  0  0  0  0  0  0  0
  140.1250  111.1590  135.9510 C   0  0  0  0  0  0  0  0  0  0  0  0
  143.4710  110.4360  137.2610 C   0  0  0  0  0  0  0  0  0  0  0  0
  143.9370  109.3640  136.6050 C   0  0  0  0  0  0  0  0  0  0  0  0
  143.0620  108.6800  135.5090 C   0  0  0  0  0  0  0  0  0  0  0  0
  141.8480  109.1610  135.2220 C   0  0  0  0  0  0  0  0  0  0  0  0
  138.8230  114.3330  136.6590 C   0  0  0  0  0  0  0  0  0  0  0  0
  154.4640  125.4170  139.9340 C   0  0  0  0  0  0  0  0  0  0  0  0
  153.4970  126.5280  139.7590 N   0  0  0  0  0  0  0  0  0  0  0  0
  152.6720  125.6720  137.8140 O   0  0  0  0  0  0  0  0  0  0  0  0
  156.2650  127.4110  140.3810 S   0  0  0  0  0  0  0  0  0  0  0  0
  154.0090  123.9550  139.7940 C   0  0  0  0  0  0  0  0  0  0  0  0
  152.8880  128.9580  136.7290 N   0  0  0  0  0  0  0  0  0  0  0  0
  152.6130  130.8320  138.4460 O   0  0  0  0  0  0  0  0  0  0  0  0
  154.8880  122.9720  139.9510 C   0  0  0  0  0  0  0  0  0  0  0  0
  156.3640  123.2990  140.2720 C   0  0  0  0  0  0  0  0  0  0  0  0
  156.7550  124.5620  140.3910 C   0  0  0  0  0  0  0  0  0  0  0  0
  155.7400  125.6960  140.2110 C   0  0  0  0  0  0  0  0  0  0  0  0
  157.4680  127.7830  139.0810 C   0  0  0  0  0  0  0  0  0  0  0  0
  158.1640  129.0450  139.4150 C   0  0  0  0  0  0  0  0  0  0  0  0
  152.6140  126.5340  138.5940 C   0  0  0  0  0  0  0  0  0  0  0  0
  151.5930  127.6940  138.3930 C   0  0  0  0  0  0  0  0  0  0  0  0
  151.6670  128.1880  136.9390 C   0  0  0  0  0  0  0  0  0  0  0  0
  153.3420  130.0840  137.4960 C   0  0  0  0  0  0  0  0  0  0  0  0
  154.9400  130.3080  137.0000 C   0  0  0  0  0  0  0  0  0  0  0  0
  155.1200  129.3460  136.0470 C   0  0  0  0  0  0  0  0  0  0  0  0
  153.8740  128.6790  135.9910 C   0  0  0  0  0  0  0  0  0  0  0  0
  156.0820  131.2620  137.3650 C   0  0  0  0  0  0  0  0  0  0  0  0
  157.2650  131.1530  136.7460 C   0  0  0  0  0  0  0  0  0  0  0  0
  157.4750  130.0540  135.6570 C   0  0  0  0  0  0  0  0  0  0  0  0
  156.4780  129.2230  135.3390 C   0  0  0  0  0  0  0  0  0  0  0  0
  150.4490  129.0870  136.6560 C   0  0  0  0  0  0  0  0  0  0  0  0
  148.7150  148.2370  139.9190 C   0  0  0  0  0  0  0  0  0  0  0  0
  147.2650  147.9920  139.7220 N   0  0  0  0  0  0  0  0  0  0  0  0
  147.5870  146.6880  137.8760 O   0  0  0  0  0  0  0  0  0  0  0  0
  147.9390  150.8030  140.4040 S   0  0  0  0  0  0  0  0  0  0  0  0
  149.7300  147.0920  139.7720 C   0  0  0  0  0  0  0  0  0  0  0  0
  144.9120  148.6600  136.7230 N   0  0  0  0  0  0  0  0  0  0  0  0
  143.2420  149.4510  138.4890 O   0  0  0  0  0  0  0  0  0  0  0  0
  151.0250  147.3290  139.9480 C   0  0  0  0  0  0  0  0  0  0  0  0
  151.5070  148.7540  140.3020 C   0  0  0  0  0  0  0  0  0  0  0  0
  150.6290  149.7410  140.4280 C   0  0  0  0  0  0  0  0  0  0  0  0
  149.1350  149.4670  140.2240 C   0  0  0  0  0  0  0  0  0  0  0  0
  148.1920  151.9980  139.0690 C   0  0  0  0  0  0  0  0  0  0  0  0
  147.4730  153.2480  139.4000 C   0  0  0  0  0  0  0  0  0  0  0  0
  146.8130  147.1600  138.6070 C   0  0  0  0  0  0  0  0  0  0  0  0
  145.2910  146.9020  138.3970 C   0  0  0  0  0  0  0  0  0  0  0  0
  144.9190  147.2170  136.9400 C   0  0  0  0  0  0  0  0  0  0  0  0
  144.2170  149.6560  137.4900 C   0  0  0  0  0  0  0  0  0  0  0  0
  144.8290  151.1220  136.9180 C   0  0  0  0  0  0  0  0  0  0  0  0
  145.6990  150.7470  135.9340 C   0  0  0  0  0  0  0  0  0  0  0  0
  145.6220  149.3350  135.9260 C   0  0  0  0  0  0  0  0  0  0  0  0
  144.6230  152.6050  137.2440 C   0  0  0  0  0  0  0  0  0  0  0  0
  145.3000  153.5390  136.5610 C   0  0  0  0  0  0  0  0  0  0  0  0
  146.2950  153.1120  135.4360 C   0  0  0  0  0  0  0  0  0  0  0  0
  146.4730  151.8180  135.1530 C   0  0  0  0  0  0  0  0  0  0  0  0
  143.5170  146.6540  136.6510 C   0  0  0  0  0  0  0  0  0  0  0  0
  126.0610  154.6490  139.9220 C   0  0  0  0  0  0  0  0  0  0  0  0
  125.5260  153.2790  139.7340 N   0  0  0  0  0  0  0  0  0  0  0  0
  126.8170  152.8680  137.8960 O   0  0  0  0  0  0  0  0  0  0  0  0
  123.4670  155.3140  140.4320 S   0  0  0  0  0  0  0  0  0  0  0  0
  127.5650  154.9300  139.7590 C   0  0  0  0  0  0  0  0  0  0  0  0
  123.7580  151.5670  136.7300 N   0  0  0  0  0  0  0  0  0  0  0  0
  122.2090  150.5210  138.4750 O   0  0  0  0  0  0  0  0  0  0  0  0
  128.0300  156.1620  139.9280 C   0  0  0  0  0  0  0  0  0  0  0  0
  127.0610  157.3110  140.2870 C   0  0  0  0  0  0  0  0  0  0  0  0
  125.7650  157.0670  140.4270 C   0  0  0  0  0  0  0  0  0  0  0  0
  125.2270  155.6450  140.2330 C   0  0  0  0  0  0  0  0  0  0  0  0
  122.5650  156.0810  139.0630 C   0  0  0  0  0  0  0  0  0  0  0  0
  121.1180  156.0560  139.3640 C   0  0  0  0  0  0  0  0  0  0  0  0
  126.0110  152.4550  138.6270 C   0  0  0  0  0  0  0  0  0  0  0  0
  125.4500  151.0150  138.4250 C   0  0  0  0  0  0  0  0  0  0  0  0
  125.0040  150.8450  136.9640 C   0  0  0  0  0  0  0  0  0  0  0  0
  122.5380  151.4700  137.4840 C   0  0  0  0  0  0  0  0  0  0  0  0
  121.5930  152.7450  136.9090 C   0  0  0  0  0  0  0  0  0  0  0  0
  122.3700  153.3110  135.9380 C   0  0  0  0  0  0  0  0  0  0  0  0
  123.5480  152.5290  135.9400 C   0  0  0  0  0  0  0  0  0  0  0  0
  120.2060  153.3170  137.2220 C   0  0  0  0  0  0  0  0  0  0  0  0
  119.7530  154.3790  136.5400 C   0  0  0  0  0  0  0  0  0  0  0  0
  120.6400  155.0280  135.4300 C   0  0  0  0  0  0  0  0  0  0  0  0
  121.8490  154.5270  135.1590 C   0  0  0  0  0  0  0  0  0  0  0  0
  124.7850  149.3480  136.6820 C   0  0  0  0  0  0  0  0  0  0  0  0
  109.2250  138.2500  139.9340 C   0  0  0  0  0  0  0  0  0  0  0  0
  110.1880  137.1360  139.7580 N   0  0  0  0  0  0  0  0  0  0  0  0
  111.0220  137.9940  137.8170 O   0  0  0  0  0  0  0  0  0  0  0  0
  107.4130  136.2650  140.3690 S   0  0  0  0  0  0  0  0  0  0  0  0
  109.6890  139.7100  139.8010 C   0  0  0  0  0  0  0  0  0  0  0  0
  110.7860  134.7090  136.7300 N   0  0  0  0  0  0  0  0  0  0  0  0
  111.0490  132.8340  138.4470 O   0  0  0  0  0  0  0  0  0  0  0  0
  108.8160  140.6980  139.9580 C   0  0  0  0  0  0  0  0  0  0  0  0
  107.3370  140.3780  140.2740 C   0  0  0  0  0  0  0  0  0  0  0  0
  106.9380  139.1180  140.3880 C   0  0  0  0  0  0  0  0  0  0  0  0
  107.9470  137.9780  140.2070 C   0  0  0  0  0  0  0  0  0  0  0  0
  106.1990  135.9080  139.0760 C   0  0  0  0  0  0  0  0  0  0  0  0
  105.4900  134.6540  139.4110 C   0  0  0  0  0  0  0  0  0  0  0  0
  111.0740  137.1280  138.5950 C   0  0  0  0  0  0  0  0  0  0  0  0
  112.0890  135.9640  138.3930 C   0  0  0  0  0  0  0  0  0  0  0  0
  112.0120  135.4710  136.9390 C   0  0  0  0  0  0  0  0  0  0  0  0
  110.3250  133.5860  137.4960 C   0  0  0  0  0  0  0  0  0  0  0  0
  108.7260  133.3720  136.9990 C   0  0  0  0  0  0  0  0  0  0  0  0
  108.5530  134.3340  136.0450 C   0  0  0  0  0  0  0  0  0  0  0  0
  109.8030  134.9940  135.9900 C   0  0  0  0  0  0  0  0  0  0  0  0
  107.5780  132.4250  137.3640 C   0  0  0  0  0  0  0  0  0  0  0  0
  106.3960  132.5410  136.7440 C   0  0  0  0  0  0  0  0  0  0  0  0
  106.1940  133.6400  135.6540 C   0  0  0  0  0  0  0  0  0  0  0  0
  107.1970  134.4650  135.3360 C   0  0  0  0  0  0  0  0  0  0  0  0
  113.2240  134.5640  136.6570 C   0  0  0  0  0  0  0  0  0  0  0  0
  114.9560  115.4280  139.9180 C   0  0  0  0  0  0  0  0  0  0  0  0
  116.4060  115.6720  139.7200 N   0  0  0  0  0  0  0  0  0  0  0  0
  116.0830  117.0030  137.8930 O   0  0  0  0  0  0  0  0  0  0  0  0
  115.7260  112.8600  140.4030 S   0  0  0  0  0  0  0  0  0  0  0  0
  113.9420  116.5750  139.7710 C   0  0  0  0  0  0  0  0  0  0  0  0
  118.7960  115.0380  136.7130 N   0  0  0  0  0  0  0  0  0  0  0  0
  120.5190  114.2930  138.4480 O   0  0  0  0  0  0  0  0  0  0  0  0
  112.6470  116.3400  139.9490 C   0  0  0  0  0  0  0  0  0  0  0  0
  112.1630  114.9160  140.3020 C   0  0  0  0  0  0  0  0  0  0  0  0
  113.0390  113.9280  140.4280 C   0  0  0  0  0  0  0  0  0  0  0  0
  114.5330  114.1990  140.2230 C   0  0  0  0  0  0  0  0  0  0  0  0
  115.4830  111.6730  139.0590 C   0  0  0  0  0  0  0  0  0  0  0  0
  116.2140  110.4280  139.3770 C   0  0  0  0  0  0  0  0  0  0  0  0
  116.8570  116.5180  138.6150 C   0  0  0  0  0  0  0  0  0  0  0  0
  118.3780  116.7750  138.4040 C   0  0  0  0  0  0  0  0  0  0  0  0
  118.7460  116.4790  136.9410 C   0  0  0  0  0  0  0  0  0  0  0  0
  119.5200  114.0620  137.4780 C   0  0  0  0  0  0  0  0  0  0  0  0
  118.9060  112.5810  136.9500 C   0  0  0  0  0  0  0  0  0  0  0  0
  118.0050  112.9310  135.9850 C   0  0  0  0  0  0  0  0  0  0  0  0
  118.0680  114.3430  135.9500 C   0  0  0  0  0  0  0  0  0  0  0  0
  119.1360  111.1060  137.2970 C   0  0  0  0  0  0  0  0  0  0  0  0
  118.4490  110.1540  136.6510 C   0  0  0  0  0  0  0  0  0  0  0  0
  117.4180  110.5510  135.5480 C   0  0  0  0  0  0  0  0  0  0  0  0
  117.2190  111.8380  135.2460 C   0  0  0  0  0  0  0  0  0  0  0  0
  120.1280  117.0870  136.6430 C   0  0  0  0  0  0  0  0  0  0  0  0
  1  2  1  0  0  0  0
  1  5  1  0  0  0  0
  5  8  2  0  0  0  0
  8  9  1  0  0  0  0
  9 10  2  0  0  0  0
  1 11  2  0  0  0  0
  4 11  1  0  0  0  0
 10 11  1  0  0  0  0
  4 12  1  0  0  0  0
 12 13  1  0  0  0  0
  2 14  1  0  0  0  0
  3 14  2  0  0  0  0
 14 15  1  0  0  0  0
  6 16  1  0  0  0  0
 15 16  1  0  0  0  0
  6 17  1  0  0  0  0
  7 17  2  0  0  0  0
 17 18  1  0  0  0  0
 18 19  1  0  0  0  0
  6 20  1  0  0  0  0
 19 20  1  0  0  0  0
 18 21  2  0  0  0  0
 21 22  1  0  0  0  0
 22 23  2  0  0  0  0
 19 24  2  0  0  0  0
 23 24  1  0  0  0  0
 16 25  1  0  0  0  0
 26 27  1  0  0  0  0
 26 30  1  0  0  0  0
 30 33  2  0  0  0  0
 33 34  1  0  0  0  0
 34 35  2  0  0  0  0
 26 36  2  0  0  0  0
 29 36  1  0  0  0  0
 35 36  1  0  0  0  0
 29 37  1  0  0  0  0
 37 38  1  0  0  0  0
 27 39  1  0  0  0  0
 28 39  2  0  0  0  0
 39 40  1  0  0  0  0
 31 41  1  0  0  0  0
 40 41  1  0  0  0  0
 31 42  1  0  0  0  0
 32 42  2  0  0  0  0
 42 43  1  0  0  0  0
 43 44  1  0  0  0  0
 31 45  1  0  0  0  0
 44 45  1  0  0  0  0
 43 46  2  0  0  0  0
 46 47  1  0  0  0  0
 47 48  2  0  0  0  0
 44 49  2  0  0  0  0
 48 49  1  0  0  0  0
 41 50  1  0  0  0  0
 51 52  1  0  0  0  0
 51 55  1  0  0  0  0
 55 58  2  0  0  0  0
 58 59  1  0  0  0  0
 59 60  2  0  0  0  0
 51 61  2  0  0  0  0
 54 61  1  0  0  0  0
 60 61  1  0  0  0  0
 54 62  1  0  0  0  0
 62 63  1  0  0  0  0
 52 64  1  0  0  0  0
 53 64  2  0  0  0  0
 64 65  1  0  0  0  0
 56 66  1  0  0  0  0
 65 66  1  0  0  0  0
 56 67  1  0  0  0  0
 57 67  2  0  0  0  0
 67 68  1  0  0  0  0
 68 69  1  0  0  0  0
 56 70  1  0  0  0  0
 69 70  1  0  0  0  0
 68 71  2  0  0  0  0
 71 72  1  0  0  0  0
 72 73  2  0  0  0  0
 69 74  2  0  0  0  0
 73 74  1  0  0  0  0
 66 75  1  0  0  0  0
 76 77  1  0  0  0  0
 76 80  1  0  0  0  0
 80 83  2  0  0  0  0
 83 84  1  0  0  0  0
 84 85  2  0  0  0  0
 76 86  2  0  0  0  0
 79 86  1  0  0  0  0
 85 86  1  0  0  0  0
 79 87  1  0  0  0  0
 87 88  1  0  0  0  0
 77 89  1  0  0  0  0
 78 89  2  0  0  0  0
 89 90  1  0  0  0  0
 81 91  1  0  0  0  0
 90 91  1  0  0  0  0
 81 92  1  0  0  0  0
 82 92  2  0  0  0  0
 92 93  1  0  0  0  0
 93 94  1  0  0  0  0
 81 95  1  0  0  0  0
 94 95  1  0  0  0  0
 93 96  2  0  0  0  0
 96 97  1  0  0  0  0
 97 98  2  0  0  0  0
 94 99  2  0  0  0  0
 98 99  1  0  0  0  0
 91100  1  0  0  0  0
101102  1  0  0  0  0
101105  1  0  0  0  0
105108  2  0  0  0  0
108109  1  0  0  0  0
109110  2  0  0  0  0
101111  2  0  0  0  0
104111  1  0  0  0  0
110111  1  0  0  0  0
104112  1  0  0  0  0
112113  1  0  0  0  0
102114  1  0  0  0  0
103114  2  0  0  0  0
114115  1  0  0  0  0
106116  1  0  0  0  0
115116  1  0  0  0  0
106117  1  0  0  0  0
107117  2  0  0  0  0
117118  1  0  0  0  0
118119  1  0  0  0  0
106120  1  0  0  0  0
119120  1  0  0  0  0
118121  2  0  0  0  0
121122  1  0  0  0  0
122123  2  0  0  0  0
119124  2  0  0  0  0
123124  1  0  0  0  0
116125  1  0  0  0  0
126127  1  0  0  0  0
126130  1  0  0  0  0
130133  2  0  0  0  0
133134  1  0  0  0  0
134135  2  0  0  0  0
126136  2  0  0  0  0
129136  1  0  0  0  0
135136  1  0  0  0  0
129137  1  0  0  0  0
137138  1  0  0  0  0
127139  1  0  0  0  0
128139  2  0  0  0  0
139140  1  0  0  0  0
131141  1  0  0  0  0
140141  1  0  0  0  0
131142  1  0  0  0  0
132142  2  0  0  0  0
142143  1  0  0  0  0
143144  1  0  0  0  0
131145  1  0  0  0  0
144145  1  0  0  0  0
143146  2  0  0  0  0
146147  1  0  0  0  0
147148  2  0  0  0  0
144149  2  0  0  0  0
148149  1  0  0  0  0
141150  1  0  0  0  0
151152  1  0  0  0  0
151155  1  0  0  0  0
155158  2  0  0  0  0
158159  1  0  0  0  0
159160  2  0  0  0  0
151161  2  0  0  0  0
154161  1  0  0  0  0
160161  1  0  0  0  0
154162  1  0  0  0  0
162163  1  0  0  0  0
152164  1  0  0  0  0
153164  2  0  0  0  0
164165  1  0  0  0  0
156166  1  0  0  0  0
165166  1  0  0  0  0
156167  1  0  0  0  0
157167  2  0  0  0  0
167168  1  0  0  0  0
168169  1  0  0  0  0
156170  1  0  0  0  0
169170  1  0  0  0  0
168171  2  0  0  0  0
171172  1  0  0  0  0
172173  2  0  0  0  0
169174  2  0  0  0  0
173174  1  0  0  0  0
166175  1  0  0  0  0
176177  1  0  0  0  0
176180  1  0  0  0  0
180183  2  0  0  0  0
183184  1  0  0  0  0
184185  2  0  0  0  0
176186  2  0  0  0  0
179186  1  0  0  0  0
185186  1  0  0  0  0
179187  1  0  0  0  0
187188  1  0  0  0  0
177189  1  0  0  0  0
178189  2  0  0  0  0
189190  1  0  0  0  0
181191  1  0  0  0  0
190191  1  0  0  0  0
181192  1  0  0  0  0
182192  2  0  0  0  0
192193  1  0  0  0  0
193194  1  0  0  0  0
181195  1  0  0  0  0
194195  1  0  0  0  0
193196  2  0  0  0  0
196197  1  0  0  0  0
197198  2  0  0  0  0
194199  2  0  0  0  0
198199  1  0  0  0  0
191200  1  0  0  0  0
201202  1  0  0  0  0
201205  1  0  0  0  0
205208  2  0  0  0  0
208209  1  0  0  0  0
209210  2  0  0  0  0
201211  2  0  0  0  0
204211  1  0  0  0  0
210211  1  0  0  0  0
204212  1  0  0  0  0
212213  1  0  0  0  0
202214  1  0  0  0  0
203214  2  0  0  0  0
214215  1  0  0  0  0
206216  1  0  0  0  0
215216  1  0  0  0  0
206217  1  0  0  0  0
207217  2  0  0  0  0
217218  1  0  0  0  0
218219  1  0  0  0  0
206220  1  0  0  0  0
219220  1  0  0  0  0
218221  2  0  0  0  0
221222  1  0  0  0  0
222223  2  0  0  0  0
219224  2  0  0  0  0
223224  1  0  0  0  0
216225  1  0  0  0  0
226227  1  0  0  0  0
226230  1  0  0  0  0
230233  2  0  0  0  0
233234  1  0  0  0  0
234235  2  0  0  0  0
226236  2  0  0  0  0
229236  1  0  0  0  0
235236  1  0  0  0  0
229237  1  0  0  0  0
237238  1  0  0  0  0
227239  1  0  0  0  0
228239  2  0  0  0  0
239240  1  0  0  0  0
231241  1  0  0  0  0
240241  1  0  0  0  0
231242  1  0  0  0  0
232242  2  0  0  0  0
242243  1  0  0  0  0
243244  1  0  0  0  0
231245  1  0  0  0  0
244245  1  0  0  0  0
243246  2  0  0  0  0
246247  1  0  0  0  0
247248  2  0  0  0  0
244249  2  0  0  0  0
248249  1  0  0  0  0
241250  1  0  0  0  0
251252  1  0  0  0  0
251255  1  0  0  0  0
255258  2  0  0  0  0
258259  1  0  0  0  0
259260  2  0  0  0  0
251261  2  0  0  0  0
254261  1  0  0  0  0
260261  1  0  0  0  0
254262  1  0  0  0  0
262263  1  0  0  0  0
252264  1  0  0  0  0
253264  2  0  0  0  0
264265  1  0  0  0  0
256266  1  0  0  0  0
265266  1  0  0  0  0
256267  1  0  0  0  0
257267  2  0  0  0  0
267268  1  0  0  0  0
268269  1  0  0  0  0
256270  1  0  0  0  0
269270  1  0  0  0  0
268271  2  0  0  0  0
271272  1  0  0  0  0
272273  2  0  0  0  0
269274  2  0  0  0  0
273274  1  0  0  0  0
266275  1  0  0  0  0
276277  1  0  0  0  0
276280  1  0  0  0  0
280283  2  0  0  0  0
283284  1  0  0  0  0
284285  2  0  0  0  0
276286  2  0  0  0  0
279286  1  0  0  0  0
285286  1  0  0  0  0
279287  1  0  0  0  0
287288  1  0  0  0  0
277289  1  0  0  0  0
278289  2  0  0  0  0
289290  1  0  0  0  0
281291  1  0  0  0  0
290291  1  0  0  0  0
281292  1  0  0  0  0
282292  2  0  0  0  0
292293  1  0  0  0  0
293294  1  0  0  0  0
281295  1  0  0  0  0
294295  1  0  0  0  0
293296  2  0  0  0  0
296297  1  0  0  0  0
297298  2  0  0  0  0
294299  2  0  0  0  0
298299  1  0  0  0  0
291300  1  0  0  0  0
M  END
$$$$
