6MC1
  PyMOL3.1          3D                             0

 23 25  0  0  0  0  0  0  0  0999 V2000
   69.7570  -41.1520  -32.9740 C   0  0  0  0  0  0  0  0  0  0  0  0
   68.9490  -41.3920  -34.5260 S   0  0  0  0  0  0  0  0  0  0  0  0
   68.9200  -39.8160  -35.3560 C   0  0  0  0  0  0  0  0  0  0  0  0
   69.6370  -38.4300  -34.6300 S   0  0  0  0  0  0  0  0  0  0  0  0
   69.2170  -37.4150  -35.9410 C   0  0  0  0  0  0  0  0  0  0  0  0
   68.5500  -38.0980  -36.9300 C   0  0  0  0  0  0  0  0  0  0  0  0
   68.0380  -37.5450  -38.2240 C   0  0  0  0  0  0  0  0  0  0  0  0
   66.8400  -38.3410  -38.7740 C   0  0  0  0  0  0  0  0  0  0  0  0
   66.9520  -39.8430  -38.6170 C   0  0  0  0  0  0  0  0  0  0  0  0
   66.3250  -40.7040  -39.5040 C   0  0  0  0  0  0  0  0  0  0  0  0
   66.4430  -42.0270  -39.3340 N   0  0  0  0  0  0  0  0  0  0  0  0
   67.1770  -42.5220  -38.2920 C   0  0  0  0  0  0  0  0  0  0  0  0
   67.3390  -44.2850  -38.0560 S   0  0  0  0  0  0  0  0  0  0  0  0
   68.3740  -44.6630  -36.6180 C   0  0  0  0  0  0  0  0  0  0  0  0
   67.5900  -44.9510  -35.2800 C   0  0  0  0  0  0  0  0  0  0  0  0
   66.4680  -44.5480  -35.1510 O   0  0  0  0  0  0  0  0  0  0  0  0
   68.1730  -45.7450  -34.0750 C   0  0  0  0  0  0  0  0  0  0  0  0
   68.1180  -44.9070  -32.8370 C   0  0  0  0  0  0  0  0  0  0  0  0
   69.6040  -46.2310  -34.2770 C   0  0  0  0  0  0  0  0  0  0  0  0
   67.2470  -46.9660  -33.8620 C   0  0  0  0  0  0  0  0  0  0  0  0
   67.7860  -41.6900  -37.4280 N   0  0  0  0  0  0  0  0  0  0  0  0
   67.6960  -40.3590  -37.5430 C   0  0  0  0  0  0  0  0  0  0  0  0
   68.3730  -39.4780  -36.5990 C   0  0  0  0  0  0  0  0  0  0  0  0
  1  2  1  0  0  0  0
  2  3  1  0  0  0  0
  3  4  1  0  0  0  0
  4  5  1  0  0  0  0
  5  6  2  0  0  0  0
  6  7  1  0  0  0  0
  7  8  1  0  0  0  0
  8  9  1  0  0  0  0
  9 10  2  0  0  0  0
 10 11  1  0  0  0  0
 11 12  2  0  0  0  0
 12 13  1  0  0  0  0
 13 14  1  0  0  0  0
 14 15  1  0  0  0  0
 15 16  2  0  0  0  0
 15 17  1  0  0  0  0
 17 18  1  0  0  0  0
 17 19  1  0  0  0  0
 17 20  1  0  0  0  0
 12 21  1  0  0  0  0
  9 22  1  0  0  0  0
 21 22  2  0  0  0  0
  3 23  2  0  0  0  0
  6 23  1  0  0  0  0
 22 23  1  0  0  0  0
M  END
$$$$
