8DSR
  PyMOL3.1          3D                             0

 33 37  0  0  0  0  0  0  0  0999 V2000
  -28.3795    1.5819   15.1720 Cl  0  0  0  0  0  0  0  0  0  0  0  0
  -19.7880    5.3286   15.1565 C   0  0  0  0  0  0  0  0  0  0  0  0
  -21.1493    4.9729   14.5744 C   0  0  0  0  0  0  0  0  0  0  0  0
  -22.2592    4.9447   15.6286 C   0  0  0  0  0  0  0  0  0  0  0  0
  -23.5817    4.6024   14.9204 C   0  0  0  0  0  0  0  0  0  0  0  0
  -23.8834    5.5938   13.7738 C   0  0  0  0  0  0  0  0  0  0  0  0
  -22.6602    5.7417   12.8540 C   0  0  0  0  0  0  0  0  0  0  0  0
  -21.4561    5.9980   13.6044 O   0  0  0  0  0  0  0  0  0  0  0  0
  -24.7388    4.3713   15.8416 N   0  0  0  0  0  0  0  0  0  0  0  0
  -25.2391    5.4417   16.5812 C   0  0  0  0  0  0  0  0  0  0  0  0
  -24.7773    6.5650   16.5177 O   0  0  0  0  0  0  0  0  0  0  0  0
  -26.4196    5.1755   17.4954 C   0  0  0  0  0  0  0  0  0  0  0  0
  -27.3118    4.0483   16.9703 C   0  0  0  0  0  0  0  0  0  0  0  0
  -28.3389    3.5558   18.0061 C   0  0  0  0  0  0  0  0  0  0  0  0
  -26.3483    2.9732   16.7924 N   0  0  0  0  0  0  0  0  0  0  0  0
  -25.2813    3.0847   15.9268 C   0  0  0  0  0  0  0  0  0  0  0  0
  -24.8043    2.1387   15.2388 N   0  0  0  0  0  0  0  0  0  0  0  0
  -27.9897    4.3594   15.6097 C   0  0  0  0  0  0  0  0  0  0  0  0
  -28.1186    5.6768   15.1868 C   0  0  0  0  0  0  0  0  0  0  0  0
  -28.7092    5.9724   13.9734 C   0  0  0  0  0  0  0  0  0  0  0  0
  -29.1852    4.9755   13.1568 C   0  0  0  0  0  0  0  0  0  0  0  0
  -29.0825    3.6335   13.5285 C   0  0  0  0  0  0  0  0  0  0  0  0
  -29.5374    2.6086   12.7101 N   0  0  0  0  0  0  0  0  0  0  0  0
  -30.2687    2.8001   11.5101 C   0  0  0  0  0  0  0  0  0  0  0  0
  -31.6483    2.8566   11.5179 C   0  0  0  0  0  0  0  0  0  0  0  0
  -32.3479    3.0298   10.4100 N   0  0  0  0  0  0  0  0  0  0  0  0
  -31.7097    3.1242    9.2473 C   0  0  0  0  0  0  0  0  0  0  0  0
  -30.3793    3.0695    9.1491 N   0  0  0  0  0  0  0  0  0  0  0  0
  -29.6702    2.8929   10.2617 C   0  0  0  0  0  0  0  0  0  0  0  0
  -32.5156    3.3082    8.0335 C   0  0  0  0  0  0  0  0  0  0  0  0
  -31.7633    3.5482    6.7416 C   0  0  0  0  0  0  0  0  0  0  0  0
  -32.5644    4.6653    7.3486 C   0  0  0  0  0  0  0  0  0  0  0  0
  -28.4771    3.3755   14.7542 C   0  0  0  0  0  0  0  0  0  0  0  0
  2  3  1  0  0  0  0
  3  4  1  0  0  0  0
  4  5  1  0  0  0  0
  5  6  1  0  0  0  0
  6  7  1  0  0  0  0
  3  8  1  0  0  0  0
  7  8  1  0  0  0  0
  5  9  1  0  0  0  0
  9 10  1  0  0  0  0
 10 11  2  0  0  0  0
 10 12  1  0  0  0  0
 12 13  1  0  0  0  0
 13 14  1  0  0  0  0
 13 15  1  0  0  0  0
  9 16  1  0  0  0  0
 15 16  1  0  0  0  0
 16 17  2  0  0  0  0
 13 18  1  0  0  0  0
 18 19  2  0  0  0  0
 19 20  1  0  0  0  0
 20 21  2  0  0  0  0
 21 22  1  0  0  0  0
 22 23  1  0  0  0  0
 23 24  1  0  0  0  0
 24 25  2  0  0  0  0
 25 26  1  0  0  0  0
 26 27  2  0  0  0  0
 27 28  1  0  0  0  0
 24 29  1  0  0  0  0
 28 29  2  0  0  0  0
 27 30  1  0  0  0  0
 30 31  1  0  0  0  0
 30 32  1  0  0  0  0
 31 32  1  0  0  0  0
  1 33  1  0  0  0  0
 18 33  1  0  0  0  0
 22 33  2  0  0  0  0
M  END
$$$$
