8DSR
  PyMOL3.1          3D                             0

 66 74  0  0  0  0  0  0  0  0999 V2000
   -5.5958   -8.2397   57.8027 Cl  0  0  0  0  0  0  0  0  0  0  0  0
    2.7124  -12.3873   56.1080 C   0  0  0  0  0  0  0  0  0  0  0  0
    1.5120  -11.9109   56.9152 C   0  0  0  0  0  0  0  0  0  0  0  0
    0.2193  -11.8604   56.0967 C   0  0  0  0  0  0  0  0  0  0  0  0
   -0.9214  -11.4353   57.0386 C   0  0  0  0  0  0  0  0  0  0  0  0
   -1.0379  -12.3684   58.2619 C   0  0  0  0  0  0  0  0  0  0  0  0
    0.3295  -12.5333   58.9316 C   0  0  0  0  0  0  0  0  0  0  0  0
    1.3481  -12.8737   57.9773 O   0  0  0  0  0  0  0  0  0  0  0  0
   -2.2364  -11.1781   56.3729 N   0  0  0  0  0  0  0  0  0  0  0  0
   -2.9334  -12.2453   55.8048 C   0  0  0  0  0  0  0  0  0  0  0  0
   -2.5213  -13.3903   55.8143 O   0  0  0  0  0  0  0  0  0  0  0  0
   -4.2714  -11.9426   55.1562 C   0  0  0  0  0  0  0  0  0  0  0  0
   -4.9647  -10.7574   55.8342 C   0  0  0  0  0  0  0  0  0  0  0  0
   -6.1753  -10.2352   55.0445 C   0  0  0  0  0  0  0  0  0  0  0  0
   -3.9464   -9.7248   55.7416 N   0  0  0  0  0  0  0  0  0  0  0  0
   -2.7226   -9.8662   56.3550 C   0  0  0  0  0  0  0  0  0  0  0  0
   -2.0657   -8.9244   56.8829 N   0  0  0  0  0  0  0  0  0  0  0  0
   -5.3515  -11.0216   57.3153 C   0  0  0  0  0  0  0  0  0  0  0  0
   -5.4261  -12.3265   57.7874 C   0  0  0  0  0  0  0  0  0  0  0  0
   -5.7654  -12.5999   59.0998 C   0  0  0  0  0  0  0  0  0  0  0  0
   -6.0394  -11.5868   59.9865 C   0  0  0  0  0  0  0  0  0  0  0  0
   -5.9821  -10.2569   59.5651 C   0  0  0  0  0  0  0  0  0  0  0  0
   -6.2611   -9.1926   60.4083 N   0  0  0  0  0  0  0  0  0  0  0  0
   -6.7361   -9.3043   61.7372 C   0  0  0  0  0  0  0  0  0  0  0  0
   -8.0700   -9.5392   62.0333 C   0  0  0  0  0  0  0  0  0  0  0  0
   -8.5034   -9.6490   63.2832 N   0  0  0  0  0  0  0  0  0  0  0  0
   -7.6146   -9.5613   64.2777 C   0  0  0  0  0  0  0  0  0  0  0  0
   -6.3197   -9.3424   64.0682 N   0  0  0  0  0  0  0  0  0  0  0  0
   -5.8843   -9.2304   62.8208 C   0  0  0  0  0  0  0  0  0  0  0  0
   -8.0582   -9.6970   65.6665 C   0  0  0  0  0  0  0  0  0  0  0  0
   -9.1388  -10.7288   65.9163 C   0  0  0  0  0  0  0  0  0  0  0  0
   -7.7361  -11.0144   66.3575 C   0  0  0  0  0  0  0  0  0  0  0  0
   -5.6385  -10.0256   58.2374 C   0  0  0  0  0  0  0  0  0  0  0  0
  -28.3795    1.5819   15.1720 Cl  0  0  0  0  0  0  0  0  0  0  0  0
  -19.7880    5.3286   15.1565 C   0  0  0  0  0  0  0  0  0  0  0  0
  -21.1493    4.9729   14.5744 C   0  0  0  0  0  0  0  0  0  0  0  0
  -22.2592    4.9447   15.6286 C   0  0  0  0  0  0  0  0  0  0  0  0
  -23.5817    4.6024   14.9204 C   0  0  0  0  0  0  0  0  0  0  0  0
  -23.8834    5.5938   13.7738 C   0  0  0  0  0  0  0  0  0  0  0  0
  -22.6602    5.7417   12.8540 C   0  0  0  0  0  0  0  0  0  0  0  0
  -21.4561    5.9980   13.6044 O   0  0  0  0  0  0  0  0  0  0  0  0
  -24.7388    4.3713   15.8416 N   0  0  0  0  0  0  0  0  0  0  0  0
  -25.2391    5.4417   16.5812 C   0  0  0  0  0  0  0  0  0  0  0  0
  -24.7773    6.5650   16.5177 O   0  0  0  0  0  0  0  0  0  0  0  0
  -26.4196    5.1755   17.4954 C   0  0  0  0  0  0  0  0  0  0  0  0
  -27.3118    4.0483   16.9703 C   0  0  0  0  0  0  0  0  0  0  0  0
  -28.3389    3.5558   18.0061 C   0  0  0  0  0  0  0  0  0  0  0  0
  -26.3483    2.9732   16.7924 N   0  0  0  0  0  0  0  0  0  0  0  0
  -25.2813    3.0847   15.9268 C   0  0  0  0  0  0  0  0  0  0  0  0
  -24.8043    2.1387   15.2388 N   0  0  0  0  0  0  0  0  0  0  0  0
  -27.9897    4.3594   15.6097 C   0  0  0  0  0  0  0  0  0  0  0  0
  -28.1186    5.6768   15.1868 C   0  0  0  0  0  0  0  0  0  0  0  0
  -28.7092    5.9724   13.9734 C   0  0  0  0  0  0  0  0  0  0  0  0
  -29.1852    4.9755   13.1568 C   0  0  0  0  0  0  0  0  0  0  0  0
  -29.0825    3.6335   13.5285 C   0  0  0  0  0  0  0  0  0  0  0  0
  -29.5374    2.6086   12.7101 N   0  0  0  0  0  0  0  0  0  0  0  0
  -30.2687    2.8001   11.5101 C   0  0  0  0  0  0  0  0  0  0  0  0
  -31.6483    2.8566   11.5179 C   0  0  0  0  0  0  0  0  0  0  0  0
  -32.3479    3.0298   10.4100 N   0  0  0  0  0  0  0  0  0  0  0  0
  -31.7097    3.1242    9.2473 C   0  0  0  0  0  0  0  0  0  0  0  0
  -30.3793    3.0695    9.1491 N   0  0  0  0  0  0  0  0  0  0  0  0
  -29.6702    2.8929   10.2617 C   0  0  0  0  0  0  0  0  0  0  0  0
  -32.5156    3.3082    8.0335 C   0  0  0  0  0  0  0  0  0  0  0  0
  -31.7633    3.5482    6.7416 C   0  0  0  0  0  0  0  0  0  0  0  0
  -32.5644    4.6653    7.3486 C   0  0  0  0  0  0  0  0  0  0  0  0
  -28.4771    3.3755   14.7542 C   0  0  0  0  0  0  0  0  0  0  0  0
  2  3  1  0  0  0  0
  3  4  1  0  0  0  0
  4  5  1  0  0  0  0
  5  6  1  0  0  0  0
  6  7  1  0  0  0  0
  3  8  1  0  0  0  0
  7  8  1  0  0  0  0
  5  9  1  0  0  0  0
  9 10  1  0  0  0  0
 10 11  2  0  0  0  0
 10 12  1  0  0  0  0
 12 13  1  0  0  0  0
 13 14  1  0  0  0  0
 13 15  1  0  0  0  0
  9 16  1  0  0  0  0
 15 16  1  0  0  0  0
 16 17  2  0  0  0  0
 13 18  1  0  0  0  0
 18 19  2  0  0  0  0
 19 20  1  0  0  0  0
 20 21  2  0  0  0  0
 21 22  1  0  0  0  0
 22 23  1  0  0  0  0
 23 24  1  0  0  0  0
 24 25  2  0  0  0  0
 25 26  1  0  0  0  0
 26 27  2  0  0  0  0
 27 28  1  0  0  0  0
 24 29  1  0  0  0  0
 28 29  2  0  0  0  0
 27 30  1  0  0  0  0
 30 31  1  0  0  0  0
 30 32  1  0  0  0  0
 31 32  1  0  0  0  0
  1 33  1  0  0  0  0
 18 33  1  0  0  0  0
 22 33  2  0  0  0  0
 35 36  1  0  0  0  0
 36 37  1  0  0  0  0
 37 38  1  0  0  0  0
 38 39  1  0  0  0  0
 39 40  1  0  0  0  0
 36 41  1  0  0  0  0
 40 41  1  0  0  0  0
 38 42  1  0  0  0  0
 42 43  1  0  0  0  0
 43 44  2  0  0  0  0
 43 45  1  0  0  0  0
 45 46  1  0  0  0  0
 46 47  1  0  0  0  0
 46 48  1  0  0  0  0
 42 49  1  0  0  0  0
 48 49  1  0  0  0  0
 49 50  2  0  0  0  0
 46 51  1  0  0  0  0
 51 52  2  0  0  0  0
 52 53  1  0  0  0  0
 53 54  2  0  0  0  0
 54 55  1  0  0  0  0
 55 56  1  0  0  0  0
 56 57  1  0  0  0  0
 57 58  2  0  0  0  0
 58 59  1  0  0  0  0
 59 60  2  0  0  0  0
 60 61  1  0  0  0  0
 57 62  1  0  0  0  0
 61 62  2  0  0  0  0
 60 63  1  0  0  0  0
 63 64  1  0  0  0  0
 63 65  1  0  0  0  0
 64 65  1  0  0  0  0
 34 66  1  0  0  0  0
 51 66  1  0  0  0  0
 55 66  2  0  0  0  0
M  END
$$$$
