8BHG
  PyMOL3.1          3D                             0

230245  0  0  0  0  0  0  0  0999 V2000
    8.4999   -6.3566  236.8056 N   0  0  0  0  0  0  0  0  0  0  0  0
    3.3605   -3.6639  234.4435 C   0  0  0  0  0  0  0  0  0  0  0  0
    5.5612   -3.6093  235.6262 O   0  0  0  0  0  0  0  0  0  0  0  0
    4.0838   -3.5561  235.7649 C   0  0  0  0  0  0  0  0  0  0  0  0
    9.6399   -4.5475  234.7474 N   0  0  0  0  0  0  0  0  0  0  0  0
    5.6614   -3.0419  233.4322 O   0  0  0  0  0  0  0  0  0  0  0  0
    3.7094   -4.6928  236.6983 C   0  0  0  0  0  0  0  0  0  0  0  0
    8.5277   -2.6936  234.2051 N   0  0  0  0  0  0  0  0  0  0  0  0
   10.1831   -6.3055  238.2867 O   0  0  0  0  0  0  0  0  0  0  0  0
    3.7904   -2.2261  236.4055 C   0  0  0  0  0  0  0  0  0  0  0  0
    6.1816   -3.3893  234.4620 C   0  0  0  0  0  0  0  0  0  0  0  0
    7.6303   -3.6835  234.5732 C   0  0  0  0  0  0  0  0  0  0  0  0
    8.2938   -4.8419  234.9305 C   0  0  0  0  0  0  0  0  0  0  0  0
    7.9408   -6.1986  235.4578 C   0  0  0  0  0  0  0  0  0  0  0  0
    6.4307   -6.4390  235.6760 C   0  0  0  0  0  0  0  0  0  0  0  0
    6.3417   -7.1552  237.0161 C   0  0  0  0  0  0  0  0  0  0  0  0
    7.4489   -6.5182  237.8122 C   0  0  0  0  0  0  0  0  0  0  0  0
    9.8074   -6.3291  237.1262 C   0  0  0  0  0  0  0  0  0  0  0  0
   10.7979   -6.3137  236.0288 C   0  0  0  0  0  0  0  0  0  0  0  0
   10.7305   -5.4525  234.9142 C   0  0  0  0  0  0  0  0  0  0  0  0
    9.7079   -3.2483  234.3217 C   0  0  0  0  0  0  0  0  0  0  0  0
   11.7247   -5.4598  233.9423 C   0  0  0  0  0  0  0  0  0  0  0  0
   12.7975   -6.3259  234.0628 C   0  0  0  0  0  0  0  0  0  0  0  0
   12.8854   -7.1905  235.1391 C   0  0  0  0  0  0  0  0  0  0  0  0
   11.8945   -7.1840  236.1054 C   0  0  0  0  0  0  0  0  0  0  0  0
   12.0694   -8.4140  237.5375 Br  0  0  0  0  0  0  0  0  0  0  0  0
    3.7274   -4.5050  233.8572 H   0  0  0  0  0  0  0  0  0  0  0  0
    3.4927   -2.7647  233.8436 H   0  0  0  0  0  0  0  0  0  0  0  0
    2.2905   -3.8070  234.5868 H   0  0  0  0  0  0  0  0  0  0  0  0
    2.7562   -4.5402  237.2024 H   0  0  0  0  0  0  0  0  0  0  0  0
    4.4349   -4.8531  237.4946 H   0  0  0  0  0  0  0  0  0  0  0  0
    3.6184   -5.6531  236.1928 H   0  0  0  0  0  0  0  0  0  0  0  0
    4.3716   -2.0824  237.3152 H   0  0  0  0  0  0  0  0  0  0  0  0
    4.0257   -1.3988  235.7376 H   0  0  0  0  0  0  0  0  0  0  0  0
    2.7394   -2.1345  236.6757 H   0  0  0  0  0  0  0  0  0  0  0  0
    8.3118   -6.9551  234.7678 H   0  0  0  0  0  0  0  0  0  0  0  0
    5.9705   -7.0585  234.9077 H   0  0  0  0  0  0  0  0  0  0  0  0
    5.8434   -5.5230  235.7199 H   0  0  0  0  0  0  0  0  0  0  0  0
    5.3722   -7.0285  237.4955 H   0  0  0  0  0  0  0  0  0  0  0  0
    6.4747   -8.2323  236.9254 H   0  0  0  0  0  0  0  0  0  0  0  0
    7.8013   -7.1265  238.6439 H   0  0  0  0  0  0  0  0  0  0  0  0
    7.1821   -5.5572  238.2494 H   0  0  0  0  0  0  0  0  0  0  0  0
   10.6447   -2.7369  234.1051 H   0  0  0  0  0  0  0  0  0  0  0  0
   11.6725   -4.7917  233.0839 H   0  0  0  0  0  0  0  0  0  0  0  0
   13.5801   -6.3289  233.3056 H   0  0  0  0  0  0  0  0  0  0  0  0
   13.7277   -7.8747  235.2306 H   0  0  0  0  0  0  0  0  0  0  0  0
   40.8066   -3.6513  237.1473 N   0  0  0  0  0  0  0  0  0  0  0  0
   37.3048   -7.5589  235.4904 C   0  0  0  0  0  0  0  0  0  0  0  0
   37.4202   -5.3233  234.7266 O   0  0  0  0  0  0  0  0  0  0  0  0
   36.5271   -6.5081  234.7354 C   0  0  0  0  0  0  0  0  0  0  0  0
   39.7304   -1.7274  235.0145 N   0  0  0  0  0  0  0  0  0  0  0  0
   35.7702   -3.8047  234.5995 O   0  0  0  0  0  0  0  0  0  0  0  0
   35.1859   -6.2354  235.3891 C   0  0  0  0  0  0  0  0  0  0  0  0
   37.6513   -1.8004  234.2305 N   0  0  0  0  0  0  0  0  0  0  0  0
   40.9731   -2.0442  238.6958 O   0  0  0  0  0  0  0  0  0  0  0  0
   36.3569   -6.9172  233.2955 C   0  0  0  0  0  0  0  0  0  0  0  0
   36.9402   -4.0806  234.6810 C   0  0  0  0  0  0  0  0  0  0  0  0
   37.9966   -3.0388  234.7460 C   0  0  0  0  0  0  0  0  0  0  0  0
   39.2856   -3.0113  235.2362 C   0  0  0  0  0  0  0  0  0  0  0  0
   40.2346   -4.0190  235.8550 C   0  0  0  0  0  0  0  0  0  0  0  0
   39.6152   -5.3910  236.1370 C   0  0  0  0  0  0  0  0  0  0  0  0
   40.5808   -5.9989  237.1327 C   0  0  0  0  0  0  0  0  0  0  0  0
   41.0052   -4.8275  238.0134 C   0  0  0  0  0  0  0  0  0  0  0  0
   41.1226   -2.4092  237.5453 C   0  0  0  0  0  0  0  0  0  0  0  0
   41.6646   -1.4952  236.5405 C   0  0  0  0  0  0  0  0  0  0  0  0
   41.0194   -1.1762  235.3297 C   0  0  0  0  0  0  0  0  0  0  0  0
   38.7061   -1.0481  234.4097 C   0  0  0  0  0  0  0  0  0  0  0  0
   41.5799   -0.2754  234.4352 C   0  0  0  0  0  0  0  0  0  0  0  0
   42.7881    0.3312  234.7366 C   0  0  0  0  0  0  0  0  0  0  0  0
   43.4474    0.0357  235.9164 C   0  0  0  0  0  0  0  0  0  0  0  0
   42.8918   -0.8708  236.8018 C   0  0  0  0  0  0  0  0  0  0  0  0
   43.8621   -1.2539  238.3849 Br  0  0  0  0  0  0  0  0  0  0  0  0
   37.4582   -7.2699  236.5291 H   0  0  0  0  0  0  0  0  0  0  0  0
   38.2864   -7.7214  235.0477 H   0  0  0  0  0  0  0  0  0  0  0  0
   36.7838   -8.5152  235.4906 H   0  0  0  0  0  0  0  0  0  0  0  0
   35.2635   -5.6469  236.3021 H   0  0  0  0  0  0  0  0  0  0  0  0
   34.6534   -7.1417  235.6739 H   0  0  0  0  0  0  0  0  0  0  0  0
   34.4983   -5.6855  234.7483 H   0  0  0  0  0  0  0  0  0  0  0  0
   36.1590   -6.0586  232.6555 H   0  0  0  0  0  0  0  0  0  0  0  0
   37.2490   -7.4086  232.9102 H   0  0  0  0  0  0  0  0  0  0  0  0
   35.5267   -7.6109  233.1713 H   0  0  0  0  0  0  0  0  0  0  0  0
   41.0560   -4.0980  235.1443 H   0  0  0  0  0  0  0  0  0  0  0  0
   39.5375   -6.0323  235.2603 H   0  0  0  0  0  0  0  0  0  0  0  0
   38.6173   -5.3474  236.5710 H   0  0  0  0  0  0  0  0  0  0  0  0
   40.1226   -6.7937  237.7195 H   0  0  0  0  0  0  0  0  0  0  0  0
   41.4374   -6.4632  236.6462 H   0  0  0  0  0  0  0  0  0  0  0  0
   42.0413   -4.8832  238.3439 H   0  0  0  0  0  0  0  0  0  0  0  0
   40.4159   -4.7305  238.9240 H   0  0  0  0  0  0  0  0  0  0  0  0
   38.7687   -0.0018  234.1144 H   0  0  0  0  0  0  0  0  0  0  0  0
   41.0827   -0.0368  233.4961 H   0  0  0  0  0  0  0  0  0  0  0  0
   43.2246    1.0465  234.0412 H   0  0  0  0  0  0  0  0  0  0  0  0
   44.3985    0.5110  236.1519 H   0  0  0  0  0  0  0  0  0  0  0  0
   48.0843   27.7941  239.0319 N   0  0  0  0  0  0  0  0  0  0  0  0
   51.6366   23.6021  237.3012 C   0  0  0  0  0  0  0  0  0  0  0  0
   49.3086   24.0116  236.8917 O   0  0  0  0  0  0  0  0  0  0  0  0
   50.2883   22.9350  237.1659 C   0  0  0  0  0  0  0  0  0  0  0  0
   46.1925   26.9727  236.7246 N   0  0  0  0  0  0  0  0  0  0  0  0
   47.5137   22.6815  237.0535 O   0  0  0  0  0  0  0  0  0  0  0  0
   49.9086   22.1850  238.4263 C   0  0  0  0  0  0  0  0  0  0  0  0
   45.9802   24.8543  236.0336 N   0  0  0  0  0  0  0  0  0  0  0  0
   46.4096   28.4303  240.3714 O   0  0  0  0  0  0  0  0  0  0  0  0
   50.2528   22.0173  235.9717 C   0  0  0  0  0  0  0  0  0  0  0  0
   48.0001   23.7727  236.8918 C   0  0  0  0  0  0  0  0  0  0  0  0
   47.1829   25.0001  236.7080 C   0  0  0  0  0  0  0  0  0  0  0  0
   47.3600   26.2993  237.1416 C   0  0  0  0  0  0  0  0  0  0  0  0
   48.4468   27.0670  237.8115 C   0  0  0  0  0  0  0  0  0  0  0  0
   49.6337   26.2122  238.2868 C   0  0  0  0  0  0  0  0  0  0  0  0
   50.3205   27.1035  239.2988 C   0  0  0  0  0  0  0  0  0  0  0  0
   49.1725   27.8026  240.0210 C   0  0  0  0  0  0  0  0  0  0  0  0
   46.9014   28.3884  239.2592 C   0  0  0  0  0  0  0  0  0  0  0  0
   46.2148   29.0058  238.1208 C   0  0  0  0  0  0  0  0  0  0  0  0
   45.8683   28.3298  236.9308 C   0  0  0  0  0  0  0  0  0  0  0  0
   45.4324   26.0388  236.0731 C   0  0  0  0  0  0  0  0  0  0  0  0
   45.1389   28.9855  235.9361 C   0  0  0  0  0  0  0  0  0  0  0  0
   44.7513   30.3008  236.1147 C   0  0  0  0  0  0  0  0  0  0  0  0
   45.0951   30.9863  237.2661 C   0  0  0  0  0  0  0  0  0  0  0  0
   45.8260   30.3440  238.2497 C   0  0  0  0  0  0  0  0  0  0  0  0
   46.3146   31.3557  239.7753 Br  0  0  0  0  0  0  0  0  0  0  0  0
   51.6726   24.2519  238.1744 H   0  0  0  0  0  0  0  0  0  0  0  0
   51.8671   24.2126  236.4295 H   0  0  0  0  0  0  0  0  0  0  0  0
   52.4342   22.8682  237.4067 H   0  0  0  0  0  0  0  0  0  0  0  0
   50.7277   22.0969  239.1384 H   0  0  0  0  0  0  0  0  0  0  0  0
   49.5790   21.1644  238.2374 H   0  0  0  0  0  0  0  0  0  0  0  0
   49.0951   22.6538  238.9780 H   0  0  0  0  0  0  0  0  0  0  0  0
   49.6306   22.4210  235.1743 H   0  0  0  0  0  0  0  0  0  0  0  0
   51.2475   21.8599  235.5573 H   0  0  0  0  0  0  0  0  0  0  0  0
   49.8518   21.0383  236.2302 H   0  0  0  0  0  0  0  0  0  0  0  0
   48.7478   27.8046  237.0690 H   0  0  0  0  0  0  0  0  0  0  0  0
   50.3344   25.9481  237.4961 H   0  0  0  0  0  0  0  0  0  0  0  0
   49.3435   25.2757  238.7608 H   0  0  0  0  0  0  0  0  0  0  0  0
   50.9441   26.5395  239.9909 H   0  0  0  0  0  0  0  0  0  0  0  0
   50.9934   27.8198  238.8298 H   0  0  0  0  0  0  0  0  0  0  0  0
   49.4033   28.8237  240.3209 H   0  0  0  0  0  0  0  0  0  0  0  0
   48.8587   27.2971  240.9331 H   0  0  0  0  0  0  0  0  0  0  0  0
   44.4636   26.2681  235.6318 H   0  0  0  0  0  0  0  0  0  0  0  0
   44.8684   28.4729  235.0141 H   0  0  0  0  0  0  0  0  0  0  0  0
   44.1699   30.8040  235.3435 H   0  0  0  0  0  0  0  0  0  0  0  0
   44.7952   32.0242  237.4025 H   0  0  0  0  0  0  0  0  0  0  0  0
   -3.8184   23.5319  238.4390 N   0  0  0  0  0  0  0  0  0  0  0  0
   -3.2922   28.5619  238.5494 C   0  0  0  0  0  0  0  0  0  0  0  0
   -2.0119   27.0946  237.2007 O   0  0  0  0  0  0  0  0  0  0  0  0
   -2.3078   28.5342  237.3995 C   0  0  0  0  0  0  0  0  0  0  0  0
   -1.8789   22.9336  236.2584 N   0  0  0  0  0  0  0  0  0  0  0  0
   -1.6678   27.1842  234.9581 O   0  0  0  0  0  0  0  0  0  0  0  0
   -0.9958   29.1946  237.7644 C   0  0  0  0  0  0  0  0  0  0  0  0
   -0.4429   24.5194  235.6339 N   0  0  0  0  0  0  0  0  0  0  0  0
   -3.2067   21.9415  239.8959 O   0  0  0  0  0  0  0  0  0  0  0  0
   -2.9005   29.1684  236.1658 C   0  0  0  0  0  0  0  0  0  0  0  0
   -1.7557   26.5757  235.9943 C   0  0  0  0  0  0  0  0  0  0  0  0
   -1.6195   25.1038  236.0764 C   0  0  0  0  0  0  0  0  0  0  0  0
   -2.5251   24.1432  236.4839 C   0  0  0  0  0  0  0  0  0  0  0  0
   -3.8933   24.1099  237.0916 C   0  0  0  0  0  0  0  0  0  0  0  0
   -4.5241   25.4976  237.3429 C   0  0  0  0  0  0  0  0  0  0  0  0
   -5.1787   25.3825  238.7137 C   0  0  0  0  0  0  0  0  0  0  0  0
   -4.2242   24.4944  239.4663 C   0  0  0  0  0  0  0  0  0  0  0  0
   -3.3987   22.2886  238.7426 C   0  0  0  0  0  0  0  0  0  0  0  0
   -3.1589   21.3303  237.6343 C   0  0  0  0  0  0  0  0  0  0  0  0
   -2.4316   21.6341  236.4646 C   0  0  0  0  0  0  0  0  0  0  0  0
   -0.6396   23.2310  235.7580 C   0  0  0  0  0  0  0  0  0  0  0  0
   -2.2184   20.6734  235.4825 C   0  0  0  0  0  0  0  0  0  0  0  0
   -2.7244   19.3962  235.6494 C   0  0  0  0  0  0  0  0  0  0  0  0
   -3.4468   19.0689  236.7829 C   0  0  0  0  0  0  0  0  0  0  0  0
   -3.6615   20.0270  237.7586 C   0  0  0  0  0  0  0  0  0  0  0  0
   -4.6757   19.5083  239.2741 Br  0  0  0  0  0  0  0  0  0  0  0  0
   -4.3208   28.5416  238.1925 H   0  0  0  0  0  0  0  0  0  0  0  0
   -3.1577   27.7053  239.2083 H   0  0  0  0  0  0  0  0  0  0  0  0
   -3.1731   29.4605  239.1529 H   0  0  0  0  0  0  0  0  0  0  0  0
   -0.1239   28.6150  237.4649 H   0  0  0  0  0  0  0  0  0  0  0  0
   -0.8638   30.1733  237.3054 H   0  0  0  0  0  0  0  0  0  0  0  0
   -0.8795   29.3594  238.8346 H   0  0  0  0  0  0  0  0  0  0  0  0
   -3.7527   28.6018  235.7937 H   0  0  0  0  0  0  0  0  0  0  0  0
   -3.2474   30.1817  236.3631 H   0  0  0  0  0  0  0  0  0  0  0  0
   -2.1738   29.2276  235.3569 H   0  0  0  0  0  0  0  0  0  0  0  0
   -4.5558   23.5418  236.4402 H   0  0  0  0  0  0  0  0  0  0  0  0
   -5.2780   25.7756  236.6079 H   0  0  0  0  0  0  0  0  0  0  0  0
   -3.8005   26.3113  237.3585 H   0  0  0  0  0  0  0  0  0  0  0  0
   -5.3051   26.3483  239.2007 H   0  0  0  0  0  0  0  0  0  0  0  0
   -6.1794   24.9556  238.6662 H   0  0  0  0  0  0  0  0  0  0  0  0
   -4.6736   23.9839  240.3168 H   0  0  0  0  0  0  0  0  0  0  0  0
   -3.3577   25.0178  239.8680 H   0  0  0  0  0  0  0  0  0  0  0  0
    0.0977   22.4743  235.4940 H   0  0  0  0  0  0  0  0  0  0  0  0
   -1.6571   20.9111  234.5801 H   0  0  0  0  0  0  0  0  0  0  0  0
   -2.5540   18.6407  234.8837 H   0  0  0  0  0  0  0  0  0  0  0  0
   -3.8467   18.0643  236.9119 H   0  0  0  0  0  0  0  0  0  0  0  0
   20.1875   44.2629  239.8793 N   0  0  0  0  0  0  0  0  0  0  0  0
   26.0315   45.3560  237.4162 C   0  0  0  0  0  0  0  0  0  0  0  0
   24.2091   43.9967  238.4719 O   0  0  0  0  0  0  0  0  0  0  0  0
   25.5022   44.6955  238.6663 C   0  0  0  0  0  0  0  0  0  0  0  0
   20.2953   42.4842  237.5031 N   0  0  0  0  0  0  0  0  0  0  0  0
   24.3648   43.7514  236.2284 O   0  0  0  0  0  0  0  0  0  0  0  0
   25.2546   45.7140  239.7638 C   0  0  0  0  0  0  0  0  0  0  0  0
   22.2677   41.7390  236.7818 N   0  0  0  0  0  0  0  0  0  0  0  0
   18.8246   43.0782  241.2047 O   0  0  0  0  0  0  0  0  0  0  0  0
   26.4176   43.5876  239.1283 C   0  0  0  0  0  0  0  0  0  0  0  0
   23.7700   43.6187  237.2669 C   0  0  0  0  0  0  0  0  0  0  0  0
   22.4233   42.9959  237.3453 C   0  0  0  0  0  0  0  0  0  0  0  0
   21.2164   43.4754  237.8221 C   0  0  0  0  0  0  0  0  0  0  0  0
   20.7190   44.6714  238.5737 C   0  0  0  0  0  0  0  0  0  0  0  0
   21.8138   45.6947  238.9496 C   0  0  0  0  0  0  0  0  0  0  0  0
   21.4980   46.0957  240.3823 C   0  0  0  0  0  0  0  0  0  0  0  0
   20.9734   44.8192  240.9813 C   0  0  0  0  0  0  0  0  0  0  0  0
   19.1304   43.4557  240.0860 C   0  0  0  0  0  0  0  0  0  0  0  0
   18.3351   43.0129  238.9142 C   0  0  0  0  0  0  0  0  0  0  0  0
   18.8834   42.5469  237.7004 C   0  0  0  0  0  0  0  0  0  0  0  0
   20.9911   41.4738  236.8960 C   0  0  0  0  0  0  0  0  0  0  0  0
   18.0645   42.1148  236.6636 C   0  0  0  0  0  0  0  0  0  0  0  0
   16.6893   42.1357  236.8190 C   0  0  0  0  0  0  0  0  0  0  0  0
   16.1219   42.5917  237.9951 C   0  0  0  0  0  0  0  0  0  0  0  0
   16.9372   43.0274  239.0253 C   0  0  0  0  0  0  0  0  0  0  0  0
   16.0867   43.6575  240.5978 Br  0  0  0  0  0  0  0  0  0  0  0  0
   26.8775   46.0051  237.6374 H   0  0  0  0  0  0  0  0  0  0  0  0
   25.2682   45.9660  236.9354 H   0  0  0  0  0  0  0  0  0  0  0  0
   26.3668   44.6183  236.6886 H   0  0  0  0  0  0  0  0  0  0  0  0
   24.2833   45.6029  240.2434 H   0  0  0  0  0  0  0  0  0  0  0  0
   25.2866   46.7438  239.4110 H   0  0  0  0  0  0  0  0  0  0  0  0
   25.9833   45.6626  240.5715 H   0  0  0  0  0  0  0  0  0  0  0  0
   26.6071   42.8669  238.3342 H   0  0  0  0  0  0  0  0  0  0  0  0
   27.3833   43.9739  239.4512 H   0  0  0  0  0  0  0  0  0  0  0  0
   25.9919   43.0395  239.9674 H   0  0  0  0  0  0  0  0  0  0  0  0
   19.9610   45.1711  237.9723 H   0  0  0  0  0  0  0  0  0  0  0  0
   21.8153   46.5842  238.3214 H   0  0  0  0  0  0  0  0  0  0  0  0
   22.8240   45.2902  238.9060 H   0  0  0  0  0  0  0  0  0  0  0  0
   22.3720   46.4655  240.9164 H   0  0  0  0  0  0  0  0  0  0  0  0
   20.7679   46.9016  240.4407 H   0  0  0  0  0  0  0  0  0  0  0  0
   20.3515   44.9674  241.8629 H   0  0  0  0  0  0  0  0  0  0  0  0
   21.7519   44.1232  241.2903 H   0  0  0  0  0  0  0  0  0  0  0  0
   20.5275   40.5519  236.5479 H   0  0  0  0  0  0  0  0  0  0  0  0
   18.4898   41.7584  235.7266 H   0  0  0  0  0  0  0  0  0  0  0  0
   16.0466   41.7909  236.0104 H   0  0  0  0  0  0  0  0  0  0  0  0
   15.0397   42.6101  238.1153 H   0  0  0  0  0  0  0  0  0  0  0  0
  2  4  1  0  0  0  0
  3  4  1  0  0  0  0
  4  7  1  0  0  0  0
  4 10  1  0  0  0  0
  3 11  1  0  0  0  0
  6 11  2  0  0  0  0
  8 12  1  0  0  0  0
 11 12  1  0  0  0  0
  5 13  1  0  0  0  0
 12 13  2  0  0  0  0
  1 14  1  0  0  0  0
 13 14  1  0  0  0  0
 14 15  1  0  0  0  0
 15 16  1  0  0  0  0
  1 17  1  0  0  0  0
 16 17  1  0  0  0  0
  1 18  1  0  0  0  0
  9 18  2  0  0  0  0
 18 19  1  0  0  0  0
  5 20  1  0  0  0  0
 19 20  2  0  0  0  0
  5 21  1  0  0  0  0
  8 21  2  0  0  0  0
 20 22  1  0  0  0  0
 22 23  2  0  0  0  0
 23 24  1  0  0  0  0
 19 25  1  0  0  0  0
 24 25  2  0  0  0  0
 25 26  1  0  0  0  0
  2 27  1  0  0  0  0
  2 28  1  0  0  0  0
  2 29  1  0  0  0  0
  7 30  1  0  0  0  0
  7 31  1  0  0  0  0
  7 32  1  0  0  0  0
 10 33  1  0  0  0  0
 10 34  1  0  0  0  0
 10 35  1  0  0  0  0
 14 36  1  0  0  0  0
 15 37  1  0  0  0  0
 15 38  1  0  0  0  0
 16 39  1  0  0  0  0
 16 40  1  0  0  0  0
 17 41  1  0  0  0  0
 17 42  1  0  0  0  0
 21 43  1  0  0  0  0
 22 44  1  0  0  0  0
 23 45  1  0  0  0  0
 24 46  1  0  0  0  0
 48 50  1  0  0  0  0
 49 50  1  0  0  0  0
 50 53  1  0  0  0  0
 50 56  1  0  0  0  0
 49 57  1  0  0  0  0
 52 57  2  0  0  0  0
 54 58  1  0  0  0  0
 57 58  1  0  0  0  0
 51 59  1  0  0  0  0
 58 59  2  0  0  0  0
 47 60  1  0  0  0  0
 59 60  1  0  0  0  0
 60 61  1  0  0  0  0
 61 62  1  0  0  0  0
 47 63  1  0  0  0  0
 62 63  1  0  0  0  0
 47 64  1  0  0  0  0
 55 64  2  0  0  0  0
 64 65  1  0  0  0  0
 51 66  1  0  0  0  0
 65 66  2  0  0  0  0
 51 67  1  0  0  0  0
 54 67  2  0  0  0  0
 66 68  1  0  0  0  0
 68 69  2  0  0  0  0
 69 70  1  0  0  0  0
 65 71  1  0  0  0  0
 70 71  2  0  0  0  0
 71 72  1  0  0  0  0
 48 73  1  0  0  0  0
 48 74  1  0  0  0  0
 48 75  1  0  0  0  0
 53 76  1  0  0  0  0
 53 77  1  0  0  0  0
 53 78  1  0  0  0  0
 56 79  1  0  0  0  0
 56 80  1  0  0  0  0
 56 81  1  0  0  0  0
 60 82  1  0  0  0  0
 61 83  1  0  0  0  0
 61 84  1  0  0  0  0
 62 85  1  0  0  0  0
 62 86  1  0  0  0  0
 63 87  1  0  0  0  0
 63 88  1  0  0  0  0
 67 89  1  0  0  0  0
 68 90  1  0  0  0  0
 69 91  1  0  0  0  0
 70 92  1  0  0  0  0
 94 96  1  0  0  0  0
 95 96  1  0  0  0  0
 96 99  1  0  0  0  0
 96102  1  0  0  0  0
 95103  1  0  0  0  0
 98103  2  0  0  0  0
100104  1  0  0  0  0
103104  1  0  0  0  0
 97105  1  0  0  0  0
104105  2  0  0  0  0
 93106  1  0  0  0  0
105106  1  0  0  0  0
106107  1  0  0  0  0
107108  1  0  0  0  0
 93109  1  0  0  0  0
108109  1  0  0  0  0
 93110  1  0  0  0  0
101110  2  0  0  0  0
110111  1  0  0  0  0
 97112  1  0  0  0  0
111112  2  0  0  0  0
 97113  1  0  0  0  0
100113  2  0  0  0  0
112114  1  0  0  0  0
114115  2  0  0  0  0
115116  1  0  0  0  0
111117  1  0  0  0  0
116117  2  0  0  0  0
117118  1  0  0  0  0
 94119  1  0  0  0  0
 94120  1  0  0  0  0
 94121  1  0  0  0  0
 99122  1  0  0  0  0
 99123  1  0  0  0  0
 99124  1  0  0  0  0
102125  1  0  0  0  0
102126  1  0  0  0  0
102127  1  0  0  0  0
106128  1  0  0  0  0
107129  1  0  0  0  0
107130  1  0  0  0  0
108131  1  0  0  0  0
108132  1  0  0  0  0
109133  1  0  0  0  0
109134  1  0  0  0  0
113135  1  0  0  0  0
114136  1  0  0  0  0
115137  1  0  0  0  0
116138  1  0  0  0  0
140142  1  0  0  0  0
141142  1  0  0  0  0
142145  1  0  0  0  0
142148  1  0  0  0  0
141149  1  0  0  0  0
144149  2  0  0  0  0
146150  1  0  0  0  0
149150  1  0  0  0  0
143151  1  0  0  0  0
150151  2  0  0  0  0
139152  1  0  0  0  0
151152  1  0  0  0  0
152153  1  0  0  0  0
153154  1  0  0  0  0
139155  1  0  0  0  0
154155  1  0  0  0  0
139156  1  0  0  0  0
147156  2  0  0  0  0
156157  1  0  0  0  0
143158  1  0  0  0  0
157158  2  0  0  0  0
143159  1  0  0  0  0
146159  2  0  0  0  0
158160  1  0  0  0  0
160161  2  0  0  0  0
161162  1  0  0  0  0
157163  1  0  0  0  0
162163  2  0  0  0  0
163164  1  0  0  0  0
140165  1  0  0  0  0
140166  1  0  0  0  0
140167  1  0  0  0  0
145168  1  0  0  0  0
145169  1  0  0  0  0
145170  1  0  0  0  0
148171  1  0  0  0  0
148172  1  0  0  0  0
148173  1  0  0  0  0
152174  1  0  0  0  0
153175  1  0  0  0  0
153176  1  0  0  0  0
154177  1  0  0  0  0
154178  1  0  0  0  0
155179  1  0  0  0  0
155180  1  0  0  0  0
159181  1  0  0  0  0
160182  1  0  0  0  0
161183  1  0  0  0  0
162184  1  0  0  0  0
186188  1  0  0  0  0
187188  1  0  0  0  0
188191  1  0  0  0  0
188194  1  0  0  0  0
187195  1  0  0  0  0
190195  2  0  0  0  0
192196  1  0  0  0  0
195196  1  0  0  0  0
189197  1  0  0  0  0
196197  2  0  0  0  0
185198  1  0  0  0  0
197198  1  0  0  0  0
198199  1  0  0  0  0
199200  1  0  0  0  0
185201  1  0  0  0  0
200201  1  0  0  0  0
185202  1  0  0  0  0
193202  2  0  0  0  0
202203  1  0  0  0  0
189204  1  0  0  0  0
203204  2  0  0  0  0
189205  1  0  0  0  0
192205  2  0  0  0  0
204206  1  0  0  0  0
206207  2  0  0  0  0
207208  1  0  0  0  0
203209  1  0  0  0  0
208209  2  0  0  0  0
209210  1  0  0  0  0
186211  1  0  0  0  0
186212  1  0  0  0  0
186213  1  0  0  0  0
191214  1  0  0  0  0
191215  1  0  0  0  0
191216  1  0  0  0  0
194217  1  0  0  0  0
194218  1  0  0  0  0
194219  1  0  0  0  0
198220  1  0  0  0  0
199221  1  0  0  0  0
199222  1  0  0  0  0
200223  1  0  0  0  0
200224  1  0  0  0  0
201225  1  0  0  0  0
201226  1  0  0  0  0
205227  1  0  0  0  0
206228  1  0  0  0  0
207229  1  0  0  0  0
208230  1  0  0  0  0
M  END
$$$$
