7Y0F
  PyMOL3.1          3D                             0

 50 52  0  0  0  0  0  0  0  0999 V2000
   20.5420    1.1260   24.6250 Cl  0  0  0  0  0  0  0  0  0  0  0  0
   24.2100   -2.6610   16.1420 C   0  0  0  0  0  0  0  0  0  0  0  0
   24.2530   -3.4060   17.4760 C   0  0  0  0  0  0  0  0  0  0  0  0
   22.9690   -4.2290   17.5900 C   0  0  0  0  0  0  0  0  0  0  0  0
   25.4740   -4.3330   17.4630 C   0  0  0  0  0  0  0  0  0  0  0  0
   25.6190   -5.2240   18.3430 O   0  0  0  0  0  0  0  0  0  0  0  0
   26.3380   -4.2140   16.5520 O   0  5  0  0  0  0  0  0  0  0  0  0
   24.3270   -2.4240   18.5560 N   0  0  0  0  0  0  0  0  0  0  0  0
   24.3820   -2.8040   20.2300 S   0  0  0  0  0  0  0  0  0  0  0  0
   25.7460   -3.0470   20.6970 O   0  0  0  0  0  0  0  0  0  0  0  0
   23.7430   -4.0830   20.5520 O   0  0  0  0  0  0  0  0  0  0  0  0
   23.6080   -1.4750   21.1950 C   0  0  0  0  0  0  0  0  0  0  0  0
   23.9810   -0.1450   21.0190 C   0  0  0  0  0  0  0  0  0  0  0  0
   23.3630    0.8660   21.7830 C   0  0  0  0  0  0  0  0  0  0  0  0
   22.3950    0.5190   22.6960 C   0  0  0  0  0  0  0  0  0  0  0  0
   22.0210   -0.8230   22.8740 C   0  0  0  0  0  0  0  0  0  0  0  0
   22.6280   -1.8170   22.1220 C   0  0  0  0  0  0  0  0  0  0  0  0
   21.7980    1.5450   23.4400 C   0  0  0  0  0  0  0  0  0  0  0  0
   22.1860    2.8600   23.2470 C   0  0  0  0  0  0  0  0  0  0  0  0
   23.1190    3.1470   22.3560 N   0  0  0  0  0  0  0  0  0  0  0  0
   23.7260    2.2210   21.6320 C   0  0  0  0  0  0  0  0  0  0  0  0
   24.7420    2.5830   20.6510 N   0  0  0  0  0  0  0  0  0  0  0  0
   25.4140    3.6480   20.6420 C   0  0  0  0  0  0  0  0  0  0  0  0
   26.3790    3.8490   19.5770 N   0  0  0  0  0  0  0  0  0  0  0  0
   25.2680    4.6720   21.6590 N   0  0  0  0  0  0  0  0  0  0  0  0
   35.8940   29.8630   62.5000 Cl  0  0  0  0  0  0  0  0  0  0  0  0
   39.2450   37.3250   61.8080 C   0  0  0  0  0  0  0  0  0  0  0  0
   40.3360   37.2650   60.7390 C   0  0  0  0  0  0  0  0  0  0  0  0
   40.1680   38.4190   59.7520 C   0  0  0  0  0  0  0  0  0  0  0  0
   41.7010   37.3760   61.4190 C   0  0  0  0  0  0  0  0  0  0  0  0
   41.9620   36.6670   62.4270 O   0  0  0  0  0  0  0  0  0  0  0  0
   42.5660   38.1750   60.9720 O   0  0  0  0  0  0  0  0  0  0  0  0
   40.2870   35.9940   60.0340 N   0  0  0  0  0  0  0  0  0  0  0  0
   38.8840   35.3950   59.2550 S   0  0  0  0  0  0  0  0  0  0  0  0
   39.0890   35.2690   57.8110 O   0  0  0  0  0  0  0  0  0  0  0  0
   37.7540   36.3260   59.2860 O   0  0  0  0  0  0  0  0  0  0  0  0
   38.4570   33.7970   60.0030 C   0  0  0  0  0  0  0  0  0  0  0  0
   39.3710   32.7480   59.9980 C   0  0  0  0  0  0  0  0  0  0  0  0
   39.0310   31.5120   60.5830 C   0  0  0  0  0  0  0  0  0  0  0  0
   37.7930   31.3590   61.1620 C   0  0  0  0  0  0  0  0  0  0  0  0
   36.8740   32.4190   61.1700 C   0  0  0  0  0  0  0  0  0  0  0  0
   37.2090   33.6340   60.5920 C   0  0  0  0  0  0  0  0  0  0  0  0
   37.4860   30.1140   61.7370 C   0  0  0  0  0  0  0  0  0  0  0  0
   38.4280   29.0970   61.7070 C   0  0  0  0  0  0  0  0  0  0  0  0
   39.6070   29.2920   61.1400 N   0  0  0  0  0  0  0  0  0  0  0  0
   39.9470   30.4380   60.5780 C   0  0  0  0  0  0  0  0  0  0  0  0
   41.2580   30.6240   59.9650 N   0  0  0  0  0  0  0  0  0  0  0  0
   42.0050   29.7110   59.5220 C   0  0  0  0  0  0  0  0  0  0  0  0
   43.2800   30.0840   58.9390 N   0  0  0  0  0  0  0  0  0  0  0  0
   41.6390   28.3060   59.5710 N   0  0  0  0  0  0  0  0  0  0  0  0
  2  3  1  0  0  0  0
  3  4  1  0  0  0  0
  3  5  1  0  0  0  0
  5  6  1  0  0  0  0
  5  7  2  0  0  0  0
  3  8  1  0  0  0  0
  8  9  1  0  0  0  0
  9 10  2  0  0  0  0
  9 11  2  0  0  0  0
  9 12  1  0  0  0  0
 12 13  2  0  0  0  0
 13 14  1  0  0  0  0
 14 15  1  0  0  0  0
 15 16  1  0  0  0  0
 12 17  1  0  0  0  0
 16 17  2  0  0  0  0
  1 18  1  0  0  0  0
 15 18  2  0  0  0  0
 18 19  1  0  0  0  0
 19 20  2  0  0  0  0
 14 21  2  0  0  0  0
 20 21  1  0  0  0  0
 21 22  1  0  0  0  0
 22 23  1  0  0  0  0
 23 24  2  0  0  0  0
 23 25  1  0  0  0  0
 27 28  1  0  0  0  0
 28 29  1  0  0  0  0
 28 30  1  0  0  0  0
 30 31  1  0  0  0  0
 30 32  2  0  0  0  0
 28 33  1  0  0  0  0
 33 34  1  0  0  0  0
 34 35  2  0  0  0  0
 34 36  2  0  0  0  0
 34 37  1  0  0  0  0
 37 38  2  0  0  0  0
 38 39  1  0  0  0  0
 39 40  1  0  0  0  0
 40 41  1  0  0  0  0
 37 42  1  0  0  0  0
 41 42  2  0  0  0  0
 26 43  1  0  0  0  0
 40 43  2  0  0  0  0
 43 44  1  0  0  0  0
 44 45  2  0  0  0  0
 39 46  2  0  0  0  0
 45 46  1  0  0  0  0
 46 47  1  0  0  0  0
 47 48  1  0  0  0  0
 48 49  2  0  0  0  0
 48 50  1  0  0  0  0
M  END
$$$$
