7Y0F
  PyMOL3.1          3D                             0

 25 26  0  0  0  0  0  0  0  0999 V2000
   35.8940   29.8630   62.5000 Cl  0  0  0  0  0  0  0  0  0  0  0  0
   39.2450   37.3250   61.8080 C   0  0  0  0  0  0  0  0  0  0  0  0
   40.3360   37.2650   60.7390 C   0  0  0  0  0  0  0  0  0  0  0  0
   40.1680   38.4190   59.7520 C   0  0  0  0  0  0  0  0  0  0  0  0
   41.7010   37.3760   61.4190 C   0  0  0  0  0  0  0  0  0  0  0  0
   41.9620   36.6670   62.4270 O   0  0  0  0  0  0  0  0  0  0  0  0
   42.5660   38.1750   60.9720 O   0  0  0  0  0  0  0  0  0  0  0  0
   40.2870   35.9940   60.0340 N   0  0  0  0  0  0  0  0  0  0  0  0
   38.8840   35.3950   59.2550 S   0  0  0  0  0  0  0  0  0  0  0  0
   39.0890   35.2690   57.8110 O   0  0  0  0  0  0  0  0  0  0  0  0
   37.7540   36.3260   59.2860 O   0  0  0  0  0  0  0  0  0  0  0  0
   38.4570   33.7970   60.0030 C   0  0  0  0  0  0  0  0  0  0  0  0
   39.3710   32.7480   59.9980 C   0  0  0  0  0  0  0  0  0  0  0  0
   39.0310   31.5120   60.5830 C   0  0  0  0  0  0  0  0  0  0  0  0
   37.7930   31.3590   61.1620 C   0  0  0  0  0  0  0  0  0  0  0  0
   36.8740   32.4190   61.1700 C   0  0  0  0  0  0  0  0  0  0  0  0
   37.2090   33.6340   60.5920 C   0  0  0  0  0  0  0  0  0  0  0  0
   37.4860   30.1140   61.7370 C   0  0  0  0  0  0  0  0  0  0  0  0
   38.4280   29.0970   61.7070 C   0  0  0  0  0  0  0  0  0  0  0  0
   39.6070   29.2920   61.1400 N   0  0  0  0  0  0  0  0  0  0  0  0
   39.9470   30.4380   60.5780 C   0  0  0  0  0  0  0  0  0  0  0  0
   41.2580   30.6240   59.9650 N   0  0  0  0  0  0  0  0  0  0  0  0
   42.0050   29.7110   59.5220 C   0  0  0  0  0  0  0  0  0  0  0  0
   43.2800   30.0840   58.9390 N   0  0  0  0  0  0  0  0  0  0  0  0
   41.6390   28.3060   59.5710 N   0  0  0  0  0  0  0  0  0  0  0  0
  2  3  1  0  0  0  0
  3  4  1  0  0  0  0
  3  5  1  0  0  0  0
  5  6  1  0  0  0  0
  5  7  2  0  0  0  0
  3  8  1  0  0  0  0
  8  9  1  0  0  0  0
  9 10  2  0  0  0  0
  9 11  2  0  0  0  0
  9 12  1  0  0  0  0
 12 13  2  0  0  0  0
 13 14  1  0  0  0  0
 14 15  1  0  0  0  0
 15 16  1  0  0  0  0
 12 17  1  0  0  0  0
 16 17  2  0  0  0  0
  1 18  1  0  0  0  0
 15 18  2  0  0  0  0
 18 19  1  0  0  0  0
 19 20  2  0  0  0  0
 14 21  2  0  0  0  0
 20 21  1  0  0  0  0
 21 22  1  0  0  0  0
 22 23  1  0  0  0  0
 23 24  2  0  0  0  0
 23 25  1  0  0  0  0
M  END
$$$$
