8Y2G
  PyMOL3.1          3D                             0

 17 18  0  0  0  0  0  0  0  0999 V2000
  141.9990  133.8940  137.4540 C   0  0  0  0  0  0  0  0  0  0  0  0
  140.7340  134.2230  138.0570 O   0  0  0  0  0  0  0  0  0  0  0  0
  139.7950  134.7610  137.2040 C   0  0  0  0  0  0  0  0  0  0  0  0
  140.1250  134.9740  136.0660 O   0  0  0  0  0  0  0  0  0  0  0  0
  138.3400  135.0850  137.7090 C   0  0  0  0  0  0  0  0  0  0  0  0
  137.6550  136.0980  136.6800 C   0  0  0  0  0  0  0  0  0  0  0  0
  136.4110  136.8170  137.2600 C   0  0  0  0  0  0  0  0  0  0  0  0
  135.7670  137.8170  136.2700 C   0  0  0  0  0  0  0  0  0  0  0  0
  136.7960  138.8370  135.7680 C   0  0  0  0  0  0  0  0  0  0  0  0
  138.0260  138.1270  135.1940 C   0  0  0  0  0  0  0  0  0  0  0  0
  138.6410  137.2060  136.2540 N   0  0  0  0  0  0  0  0  0  0  0  0
  137.5190  133.7710  137.8430 C   0  0  0  0  0  0  0  0  0  0  0  0
  136.9310  133.1380  136.7270 C   0  0  0  0  0  0  0  0  0  0  0  0
  136.1910  131.9450  136.8570 C   0  0  0  0  0  0  0  0  0  0  0  0
  136.0180  131.3480  138.1120 C   0  0  0  0  0  0  0  0  0  0  0  0
  136.5940  131.9560  139.2360 C   0  0  0  0  0  0  0  0  0  0  0  0
  137.3310  133.1480  139.0990 C   0  0  0  0  0  0  0  0  0  0  0  0
  1  2  1  0  0  0  0
  2  3  1  0  0  0  0
  3  4  2  0  0  0  0
  3  5  1  0  0  0  0
  5  6  1  0  0  0  0
  6  7  1  0  0  0  0
  7  8  1  0  0  0  0
  8  9  1  0  0  0  0
  9 10  1  0  0  0  0
  6 11  1  0  0  0  0
 10 11  1  0  0  0  0
  5 12  1  0  0  0  0
 12 13  1  0  0  0  0
 13 14  2  0  0  0  0
 14 15  1  0  0  0  0
 15 16  2  0  0  0  0
 12 17  2  0  0  0  0
 16 17  1  0  0  0  0
M  END
$$$$
