9AYK
  PyMOL3.1          3D                             0

 24 26  0  0  0  0  0  0  0  0999 V2000
  127.3570  139.8720  145.3940 Cl  0  0  0  0  0  0  0  0  0  0  0  0
  124.1830  136.3990  142.3460 Cl  0  0  0  0  0  0  0  0  0  0  0  0
  130.3530  135.3890  142.7580 O   0  0  0  0  0  0  0  0  0  0  0  0
  131.1920  132.4720  138.8040 N   0  0  0  0  0  0  0  0  0  0  0  0
  129.0990  133.6760  143.6430 N   0  0  0  0  0  0  0  0  0  0  0  0
  131.0750  133.0680  141.0800 C   0  0  0  0  0  0  0  0  0  0  0  0
  130.6720  131.6360  140.9110 C   0  0  0  0  0  0  0  0  0  0  0  0
  129.8650  132.5550  141.7840 C   0  0  0  0  0  0  0  0  0  0  0  0
  131.6320  133.4780  139.9300 C   0  0  0  0  0  0  0  0  0  0  0  0
  130.7910  131.3600  139.3750 C   0  0  0  0  0  0  0  0  0  0  0  0
  130.0660  132.6300  143.3220 C   0  0  0  0  0  0  0  0  0  0  0  0
  132.1250  132.3490  138.1340 C   0  0  0  0  0  0  0  0  0  0  0  0
  131.7780  131.6650  136.7770 C   0  0  0  0  0  0  0  0  0  0  0  0
  132.7410  132.1650  135.6500 C   0  0  0  0  0  0  0  0  0  0  0  0
  129.3570  135.0670  143.2910 C   0  0  0  0  0  0  0  0  0  0  0  0
  134.2090  132.1910  136.1370 C   0  0  0  0  0  0  0  0  0  0  0  0
  132.3370  133.5880  135.1970 C   0  0  0  0  0  0  0  0  0  0  0  0
  132.6180  131.1830  134.4620 C   0  0  0  0  0  0  0  0  0  0  0  0
  128.2750  136.1060  143.5580 C   0  0  0  0  0  0  0  0  0  0  0  0
  126.9310  135.7830  142.9150 C   0  0  0  0  0  0  0  0  0  0  0  0
  128.4780  137.3960  144.3510 C   0  0  0  0  0  0  0  0  0  0  0  0
  127.2820  138.3430  144.5010 C   0  0  0  0  0  0  0  0  0  0  0  0
  125.7630  136.7370  143.0710 C   0  0  0  0  0  0  0  0  0  0  0  0
  125.9410  138.0120  143.8640 C   0  0  0  0  0  0  0  0  0  0  0  0
  6  7  1  0  0  0  0
  6  8  1  0  0  0  0
  7  8  1  0  0  0  0
  4  9  1  0  0  0  0
  6  9  1  0  0  0  0
  4 10  1  0  0  0  0
  7 10  1  0  0  0  0
  5 11  1  0  0  0  0
  8 11  1  0  0  0  0
  4 12  1  0  0  0  0
 12 13  1  0  0  0  0
 13 14  1  0  0  0  0
  3 15  2  0  0  0  0
  5 15  1  0  0  0  0
 14 16  1  0  0  0  0
 14 17  1  0  0  0  0
 14 18  1  0  0  0  0
 15 19  1  0  0  0  0
 19 20  1  0  0  0  0
 19 21  2  0  0  0  0
  1 22  1  0  0  0  0
 21 22  1  0  0  0  0
  2 23  1  0  0  0  0
 20 23  2  0  0  0  0
 22 24  2  0  0  0  0
 23 24  1  0  0  0  0
M  END
$$$$
