7REC
  PyMOL3.1          3D                             0

120126  0  0  0  0  0  0  0  0999 V2000
   15.9700   19.1450    2.3370 N   0  0  0  0  0  0  0  0  0  0  0  0
   18.5410   16.8160    3.0110 C   0  0  0  0  0  0  0  0  0  0  0  0
   19.4100   15.9080    3.0560 O   0  0  0  0  0  0  0  0  0  0  0  0
   13.6620   18.6300    0.4310 Cl  0  0  0  0  0  0  0  0  0  0  0  0
   16.9300   21.6830    3.6110 Cl  0  0  0  0  0  0  0  0  0  0  0  0
   17.2420   16.5970    2.2350 C   0  0  0  0  0  0  0  0  0  0  0  0
   18.7450   17.9080    3.6030 O   0  5  0  0  0  0  0  0  0  0  0  0
   16.0330   16.8320    3.1340 C   0  0  0  0  0  0  0  0  0  0  0  0
   13.9650   14.9580    5.5190 O   0  0  0  0  0  0  0  0  0  0  0  0
   15.4300   18.0780    3.1690 C   0  0  0  0  0  0  0  0  0  0  0  0
   15.1870   20.3210    1.9810 C   0  0  0  0  0  0  0  0  0  0  0  0
   14.1110   20.2160    1.1130 C   0  0  0  0  0  0  0  0  0  0  0  0
   13.3790   21.3430    0.7740 C   0  0  0  0  0  0  0  0  0  0  0  0
   13.7270   22.5760    1.2990 C   0  0  0  0  0  0  0  0  0  0  0  0
   14.8070   22.6850    2.1620 C   0  0  0  0  0  0  0  0  0  0  0  0
   15.5380   21.5560    2.5000 C   0  0  0  0  0  0  0  0  0  0  0  0
   14.3330   18.2940    3.9900 C   0  0  0  0  0  0  0  0  0  0  0  0
   13.8450   17.2580    4.7740 C   0  0  0  0  0  0  0  0  0  0  0  0
   14.4530   16.0110    4.7350 C   0  0  0  0  0  0  0  0  0  0  0  0
   15.5470   15.7980    3.9150 C   0  0  0  0  0  0  0  0  0  0  0  0
   29.5280   18.5900   27.7060 N   0  0  0  0  0  0  0  0  0  0  0  0
   31.2320   17.6800   24.7840 C   0  0  0  0  0  0  0  0  0  0  0  0
   32.0270   17.2680   23.8940 O   0  0  0  0  0  0  0  0  0  0  0  0
   26.9250   17.1840   27.2740 Cl  0  0  0  0  0  0  0  0  0  0  0  0
   30.6290   20.0420   30.1360 Cl  0  0  0  0  0  0  0  0  0  0  0  0
   31.7530   18.5390   25.9310 C   0  0  0  0  0  0  0  0  0  0  0  0
   30.0080   17.3860   24.7440 O   0  5  0  0  0  0  0  0  0  0  0  0
   30.9330   19.8120   26.1180 C   0  0  0  0  0  0  0  0  0  0  0  0
   30.8550   23.2820   24.9110 O   0  0  0  0  0  0  0  0  0  0  0  0
   29.8580   19.8110   26.9890 C   0  0  0  0  0  0  0  0  0  0  0  0
   28.6440   18.6160   28.8620 C   0  0  0  0  0  0  0  0  0  0  0  0
   27.4090   17.9950   28.7880 C   0  0  0  0  0  0  0  0  0  0  0  0
   26.5590   18.0060   29.8820 C   0  0  0  0  0  0  0  0  0  0  0  0
   26.9460   18.6380   31.0520 C   0  0  0  0  0  0  0  0  0  0  0  0
   28.1830   19.2600   31.1280 C   0  0  0  0  0  0  0  0  0  0  0  0
   29.0340   19.2460   30.0330 C   0  0  0  0  0  0  0  0  0  0  0  0
   29.1090   20.9620   27.1720 C   0  0  0  0  0  0  0  0  0  0  0  0
   29.4400   22.1160   26.4810 C   0  0  0  0  0  0  0  0  0  0  0  0
   30.5190   22.1170   25.6110 C   0  0  0  0  0  0  0  0  0  0  0  0
   31.2660   20.9650   25.4300 C   0  0  0  0  0  0  0  0  0  0  0  0
   34.7150   47.1980   24.7660 N   0  0  0  0  0  0  0  0  0  0  0  0
   35.8050   48.1030   21.6660 C   0  0  0  0  0  0  0  0  0  0  0  0
   36.4300   48.4000   20.6150 O   0  5  0  0  0  0  0  0  0  0  0  0
   33.5430   44.6250   23.6700 Cl  0  0  0  0  0  0  0  0  0  0  0  0
   34.9920   48.1840   27.5850 Cl  0  0  0  0  0  0  0  0  0  0  0  0
   36.0790   48.8820   22.9500 C   0  0  0  0  0  0  0  0  0  0  0  0
   34.9580   47.1700   21.6610 O   0  0  0  0  0  0  0  0  0  0  0  0
   34.7820   49.3410   23.6030 C   0  0  0  0  0  0  0  0  0  0  0  0
   32.5860   52.2730   23.5800 O   0  0  0  0  0  0  0  0  0  0  0  0
   34.1270   48.5040   24.4880 C   0  0  0  0  0  0  0  0  0  0  0  0
   34.1920   46.2850   25.7730 C   0  0  0  0  0  0  0  0  0  0  0  0
   33.6400   45.0690   25.3970 C   0  0  0  0  0  0  0  0  0  0  0  0
   33.1500   44.2030   26.3620 C   0  0  0  0  0  0  0  0  0  0  0  0
   33.2210   44.5460   27.7010 C   0  0  0  0  0  0  0  0  0  0  0  0
   33.7800   45.7570   28.0770 C   0  0  0  0  0  0  0  0  0  0  0  0
   34.2680   46.6230   27.1130 C   0  0  0  0  0  0  0  0  0  0  0  0
   32.9450   48.9240   25.0830 C   0  0  0  0  0  0  0  0  0  0  0  0
   32.4300   50.1780   24.7850 C   0  0  0  0  0  0  0  0  0  0  0  0
   33.0950   51.0090   23.8950 C   0  0  0  0  0  0  0  0  0  0  0  0
   34.2710   50.5910   23.3060 C   0  0  0  0  0  0  0  0  0  0  0  0
    6.0050    6.4140   39.7580 N   0  0  0  0  0  0  0  0  0  0  0  0
    5.7810    3.6050   37.6770 C   0  0  0  0  0  0  0  0  0  0  0  0
    5.7260    2.4380   37.2080 O   0  0  0  0  0  0  0  0  0  0  0  0
    3.2180    7.3620   39.3170 Cl  0  0  0  0  0  0  0  0  0  0  0  0
    8.1830    7.3830   41.6180 Cl  0  0  0  0  0  0  0  0  0  0  0  0
    6.9580    4.0200   38.5540 C   0  0  0  0  0  0  0  0  0  0  0  0
    4.8700    4.4380   37.4250 O   0  5  0  0  0  0  0  0  0  0  0  0
    7.4920    5.3800   38.1190 C   0  0  0  0  0  0  0  0  0  0  0  0
    9.9030    6.7640   35.7280 O   0  0  0  0  0  0  0  0  0  0  0  0
    7.0130    6.5320   38.7170 C   0  0  0  0  0  0  0  0  0  0  0  0
    5.6380    7.5490   40.5880 C   0  0  0  0  0  0  0  0  0  0  0  0
    4.3650    8.0780   40.4820 C   0  0  0  0  0  0  0  0  0  0  0  0
    3.9950    9.1550   41.2720 C   0  0  0  0  0  0  0  0  0  0  0  0
    4.9030    9.6950   42.1680 C   0  0  0  0  0  0  0  0  0  0  0  0
    6.1780    9.1600   42.2790 C   0  0  0  0  0  0  0  0  0  0  0  0
    6.5450    8.0820   41.4890 C   0  0  0  0  0  0  0  0  0  0  0  0
    7.4920    7.7710   38.3230 C   0  0  0  0  0  0  0  0  0  0  0  0
    8.4530    7.8510   37.3270 C   0  0  0  0  0  0  0  0  0  0  0  0
    8.9310    6.6930   36.7310 C   0  0  0  0  0  0  0  0  0  0  0  0
    8.4500    5.4580   37.1260 C   0  0  0  0  0  0  0  0  0  0  0  0
   19.3960   70.4270   30.9580 N   0  0  0  0  0  0  0  0  0  0  0  0
   18.7710   73.0390   28.9380 C   0  0  0  0  0  0  0  0  0  0  0  0
   18.7830   74.1070   28.2750 O   0  5  0  0  0  0  0  0  0  0  0  0
   19.9080   68.7250   28.6030 Cl  0  0  0  0  0  0  0  0  0  0  0  0
   19.7640   69.9290   33.9330 Cl  0  0  0  0  0  0  0  0  0  0  0  0
   18.7070   73.0950   30.4610 C   0  0  0  0  0  0  0  0  0  0  0  0
   18.8110   71.9240   28.3530 O   0  0  0  0  0  0  0  0  0  0  0  0
   17.6630   72.1260   30.9990 C   0  0  0  0  0  0  0  0  0  0  0  0
   14.1290   72.0940   31.9820 O   0  0  0  0  0  0  0  0  0  0  0  0
   18.0250   70.8150   31.2350 C   0  0  0  0  0  0  0  0  0  0  0  0
   19.9080   69.1120   31.3060 C   0  0  0  0  0  0  0  0  0  0  0  0
   20.1990   68.2220   30.2890 C   0  0  0  0  0  0  0  0  0  0  0  0
   20.7010   66.9650   30.5870 C   0  0  0  0  0  0  0  0  0  0  0  0
   20.9160   66.6110   31.9100 C   0  0  0  0  0  0  0  0  0  0  0  0
   20.6330   67.5070   32.9300 C   0  0  0  0  0  0  0  0  0  0  0  0
   20.1320   68.7650   32.6290 C   0  0  0  0  0  0  0  0  0  0  0  0
   17.0940   69.9120   31.7220 C   0  0  0  0  0  0  0  0  0  0  0  0
   15.7970   70.3380   31.9680 C   0  0  0  0  0  0  0  0  0  0  0  0
   15.4370   71.6590   31.7330 C   0  0  0  0  0  0  0  0  0  0  0  0
   16.3720   72.5550   31.2450 C   0  0  0  0  0  0  0  0  0  0  0  0
    4.6270   68.3640    6.9190 N   0  0  0  0  0  0  0  0  0  0  0  0
    6.9630   70.6110    7.4460 C   0  0  0  0  0  0  0  0  0  0  0  0
    7.6010   71.6930    7.5270 O   0  0  0  0  0  0  0  0  0  0  0  0
    3.6920   66.9400    4.3970 Cl  0  0  0  0  0  0  0  0  0  0  0  0
    3.3370   68.6100    9.6240 Cl  0  0  0  0  0  0  0  0  0  0  0  0
    6.9980   69.8140    6.1400 C   0  0  0  0  0  0  0  0  0  0  0  0
    6.2940   70.2040    8.4330 O   0  5  0  0  0  0  0  0  0  0  0  0
    7.0090   68.2990    6.3120 C   0  0  0  0  0  0  0  0  0  0  0  0
    9.3970   65.5230    6.0000 O   0  0  0  0  0  0  0  0  0  0  0  0
    5.8580   67.6220    6.6830 C   0  0  0  0  0  0  0  0  0  0  0  0
    3.3450   67.6790    7.0330 C   0  0  0  0  0  0  0  0  0  0  0  0
    2.8070   66.9990    5.9480 C   0  0  0  0  0  0  0  0  0  0  0  0
    1.5840   66.3580    6.0720 C   0  0  0  0  0  0  0  0  0  0  0  0
    0.8930   66.4030    7.2720 C   0  0  0  0  0  0  0  0  0  0  0  0
    1.4270   67.0870    8.3540 C   0  0  0  0  0  0  0  0  0  0  0  0
    2.6510   67.7270    8.2320 C   0  0  0  0  0  0  0  0  0  0  0  0
    5.8820   66.2450    6.8270 C   0  0  0  0  0  0  0  0  0  0  0  0
    7.0560   65.5470    6.6010 C   0  0  0  0  0  0  0  0  0  0  0  0
    8.2060   66.2250    6.2280 C   0  0  0  0  0  0  0  0  0  0  0  0
    8.1780   67.5990    6.0820 C   0  0  0  0  0  0  0  0  0  0  0  0
  2  3  2  0  0  0  0
  2  6  1  0  0  0  0
  2  7  1  0  0  0  0
  6  8  1  0  0  0  0
  1 10  1  0  0  0  0
  8 10  1  0  0  0  0
  1 11  1  0  0  0  0
  4 12  1  0  0  0  0
 11 12  2  0  0  0  0
 12 13  1  0  0  0  0
 13 14  2  0  0  0  0
 14 15  1  0  0  0  0
  5 16  1  0  0  0  0
 11 16  1  0  0  0  0
 15 16  2  0  0  0  0
 10 17  2  0  0  0  0
 17 18  1  0  0  0  0
  9 19  1  0  0  0  0
 18 19  2  0  0  0  0
  8 20  2  0  0  0  0
 19 20  1  0  0  0  0
 22 23  2  0  0  0  0
 22 26  1  0  0  0  0
 22 27  1  0  0  0  0
 26 28  1  0  0  0  0
 21 30  1  0  0  0  0
 28 30  1  0  0  0  0
 21 31  1  0  0  0  0
 24 32  1  0  0  0  0
 31 32  2  0  0  0  0
 32 33  1  0  0  0  0
 33 34  2  0  0  0  0
 34 35  1  0  0  0  0
 25 36  1  0  0  0  0
 31 36  1  0  0  0  0
 35 36  2  0  0  0  0
 30 37  2  0  0  0  0
 37 38  1  0  0  0  0
 29 39  1  0  0  0  0
 38 39  2  0  0  0  0
 28 40  2  0  0  0  0
 39 40  1  0  0  0  0
 42 43  2  0  0  0  0
 42 46  1  0  0  0  0
 42 47  1  0  0  0  0
 46 48  1  0  0  0  0
 41 50  1  0  0  0  0
 48 50  1  0  0  0  0
 41 51  1  0  0  0  0
 44 52  1  0  0  0  0
 51 52  2  0  0  0  0
 52 53  1  0  0  0  0
 53 54  2  0  0  0  0
 54 55  1  0  0  0  0
 45 56  1  0  0  0  0
 51 56  1  0  0  0  0
 55 56  2  0  0  0  0
 50 57  2  0  0  0  0
 57 58  1  0  0  0  0
 49 59  1  0  0  0  0
 58 59  2  0  0  0  0
 48 60  2  0  0  0  0
 59 60  1  0  0  0  0
 62 63  2  0  0  0  0
 62 66  1  0  0  0  0
 62 67  1  0  0  0  0
 66 68  1  0  0  0  0
 61 70  1  0  0  0  0
 68 70  1  0  0  0  0
 61 71  1  0  0  0  0
 64 72  1  0  0  0  0
 71 72  2  0  0  0  0
 72 73  1  0  0  0  0
 73 74  2  0  0  0  0
 74 75  1  0  0  0  0
 65 76  1  0  0  0  0
 71 76  1  0  0  0  0
 75 76  2  0  0  0  0
 70 77  2  0  0  0  0
 77 78  1  0  0  0  0
 69 79  1  0  0  0  0
 78 79  2  0  0  0  0
 68 80  2  0  0  0  0
 79 80  1  0  0  0  0
 82 83  2  0  0  0  0
 82 86  1  0  0  0  0
 82 87  1  0  0  0  0
 86 88  1  0  0  0  0
 81 90  1  0  0  0  0
 88 90  1  0  0  0  0
 81 91  1  0  0  0  0
 84 92  1  0  0  0  0
 91 92  2  0  0  0  0
 92 93  1  0  0  0  0
 93 94  2  0  0  0  0
 94 95  1  0  0  0  0
 85 96  1  0  0  0  0
 91 96  1  0  0  0  0
 95 96  2  0  0  0  0
 90 97  2  0  0  0  0
 97 98  1  0  0  0  0
 89 99  1  0  0  0  0
 98 99  2  0  0  0  0
 88100  2  0  0  0  0
 99100  1  0  0  0  0
102103  2  0  0  0  0
102106  1  0  0  0  0
102107  1  0  0  0  0
106108  1  0  0  0  0
101110  1  0  0  0  0
108110  1  0  0  0  0
101111  1  0  0  0  0
104112  1  0  0  0  0
111112  2  0  0  0  0
112113  1  0  0  0  0
113114  2  0  0  0  0
114115  1  0  0  0  0
105116  1  0  0  0  0
111116  1  0  0  0  0
115116  2  0  0  0  0
110117  2  0  0  0  0
117118  1  0  0  0  0
109119  1  0  0  0  0
118119  2  0  0  0  0
108120  2  0  0  0  0
119120  1  0  0  0  0
M  END
$$$$
