7UY3
  PyMOL3.1          3D                             0

 44 48  0  0  0  0  0  0  0  0999 V2000
  -56.1240  -16.1990   21.9440 C   0  0  0  0  0  0  0  0  0  0  0  0
  -56.2110  -15.8570   20.4350 C   0  0  0  0  0  0  0  0  0  0  0  0
  -55.6040  -16.7390   19.7320 N   0  0  0  0  0  0  0  0  0  0  0  0
  -54.2820  -16.4000   19.6300 C   0  0  0  0  0  0  0  0  0  0  0  0
  -53.5200  -17.2800   18.6390 C   0  0  0  0  0  0  0  0  0  0  0  0
  -54.1480  -17.3360   17.4200 N   0  0  0  0  0  0  0  0  0  0  0  0
  -55.4500  -17.7160   17.5280 C   0  0  0  0  0  0  0  0  0  0  0  0
  -56.2210  -16.8330   18.5140 C   0  0  0  0  0  0  0  0  0  0  0  0
  -53.5170  -18.1610   16.6390 C   0  0  0  0  0  0  0  0  0  0  0  0
  -53.4240  -17.5820   15.1960 C   0  0  0  0  0  0  0  0  0  0  0  0
  -53.4780  -18.4440   14.0480 C   0  0  0  0  0  0  0  0  0  0  0  0
  -53.3880  -17.9010   12.7670 C   0  0  0  0  0  0  0  0  0  0  0  0
  -53.2550  -16.5260   12.5870 C   0  0  0  0  0  0  0  0  0  0  0  0
  -53.1470  -15.9370   11.1790 N   0  0  0  0  0  0  0  0  0  0  0  0
  -54.0170  -16.3340   10.0780 C   0  0  0  0  0  0  0  0  0  0  0  0
  -54.8620  -17.1340   10.2300 O   0  0  0  0  0  0  0  0  0  0  0  0
  -53.8140  -15.6840    8.7050 C   0  0  0  0  0  0  0  0  0  0  0  0
  -54.7600  -15.8480    7.6900 C   0  0  0  0  0  0  0  0  0  0  0  0
  -54.5580  -15.2560    6.4470 C   0  0  0  0  0  0  0  0  0  0  0  0
  -53.4080  -14.4850    6.2150 C   0  0  0  0  0  0  0  0  0  0  0  0
  -53.1690  -13.8170    4.8480 C   0  0  0  0  0  0  0  0  0  0  0  0
  -52.4710  -14.3250    7.2280 C   0  0  0  0  0  0  0  0  0  0  0  0
  -52.6690  -14.9230    8.4690 C   0  0  0  0  0  0  0  0  0  0  0  0
  -55.5530  -15.4230    5.4030 O   0  0  0  0  0  0  0  0  0  0  0  0
  -55.1870  -16.4440    4.4370 C   0  0  0  0  0  0  0  0  0  0  0  0
  -56.0830  -16.7150    3.3400 C   0  0  0  0  0  0  0  0  0  0  0  0
  -57.3170  -16.0140    3.1780 C   0  0  0  0  0  0  0  0  0  0  0  0
  -58.1450  -16.3100    2.1110 C   0  0  0  0  0  0  0  0  0  0  0  0
  -59.3630  -15.6170    1.9550 O   0  0  0  0  0  0  0  0  0  0  0  0
  -59.3810  -14.3400    2.5530 C   0  0  0  0  0  0  0  0  0  0  0  0
  -57.7710  -17.2990    1.1850 C   0  0  0  0  0  0  0  0  0  0  0  0
  -56.5670  -17.9820    1.3470 C   0  0  0  0  0  0  0  0  0  0  0  0
  -55.7170  -17.6750    2.4450 C   0  0  0  0  0  0  0  0  0  0  0  0
  -54.5290  -18.3350    2.6190 N   0  0  0  0  0  0  0  0  0  0  0  0
  -53.7390  -18.0540    3.6380 C   0  0  0  0  0  0  0  0  0  0  0  0
  -54.0580  -17.1130    4.5460 N   0  0  0  0  0  0  0  0  0  0  0  0
  -58.6160  -17.5940    0.1090 O   0  0  0  0  0  0  0  0  0  0  0  0
  -57.9680  -18.1410   -1.0040 C   0  0  0  0  0  0  0  0  0  0  0  0
  -53.1950  -15.6730   13.7250 C   0  0  0  0  0  0  0  0  0  0  0  0
  -53.2830  -16.2130   15.0160 C   0  0  0  0  0  0  0  0  0  0  0  0
  -53.6320  -19.9680   14.1880 C   0  0  0  0  0  0  0  0  0  0  0  0
  -52.5740  -20.4780   14.8770 F   0  0  0  0  0  0  0  0  0  0  0  0
  -54.7890  -20.2700   14.8250 F   0  0  0  0  0  0  0  0  0  0  0  0
  -53.6560  -20.5270   12.9290 F   0  0  0  0  0  0  0  0  0  0  0  0
  1  2  1  0  0  0  0
  2  3  1  0  0  0  0
  3  4  1  0  0  0  0
  4  5  1  0  0  0  0
  5  6  1  0  0  0  0
  6  7  1  0  0  0  0
  3  8  1  0  0  0  0
  7  8  1  0  0  0  0
  6  9  1  0  0  0  0
  9 10  1  0  0  0  0
 10 11  2  0  0  0  0
 11 12  1  0  0  0  0
 12 13  2  0  0  0  0
 13 14  1  0  0  0  0
 14 15  1  0  0  0  0
 15 16  2  0  0  0  0
 15 17  1  0  0  0  0
 17 18  2  0  0  0  0
 18 19  1  0  0  0  0
 19 20  2  0  0  0  0
 20 21  1  0  0  0  0
 20 22  1  0  0  0  0
 17 23  1  0  0  0  0
 22 23  2  0  0  0  0
 19 24  1  0  0  0  0
 24 25  1  0  0  0  0
 25 26  2  0  0  0  0
 26 27  1  0  0  0  0
 27 28  2  0  0  0  0
 28 29  1  0  0  0  0
 29 30  1  0  0  0  0
 28 31  1  0  0  0  0
 31 32  2  0  0  0  0
 26 33  1  0  0  0  0
 32 33  1  0  0  0  0
 33 34  2  0  0  0  0
 34 35  1  0  0  0  0
 25 36  1  0  0  0  0
 35 36  2  0  0  0  0
 31 37  1  0  0  0  0
 37 38  1  0  0  0  0
 13 39  1  0  0  0  0
 10 40  1  0  0  0  0
 39 40  2  0  0  0  0
 11 41  1  0  0  0  0
 41 42  1  0  0  0  0
 41 43  1  0  0  0  0
 41 44  1  0  0  0  0
M  END
$$$$
