8JSR
  PyMOL3.1          3D                             0

 40 43  0  0  0  0  0  0  0  0999 V2000
  126.8330  132.2210  106.4480 C   0  0  0  0  0  0  0  0  0  0  0  0
  127.5970  133.2940  105.6180 C   0  0  0  0  0  0  0  0  0  0  0  0
  128.9320  133.5950  106.3250 C   0  0  0  0  0  0  0  0  0  0  0  0
  127.8590  132.7920  104.1610 C   0  0  0  0  0  0  0  0  0  0  0  0
  128.1270  131.5920  104.0300 O   0  0  0  0  0  0  0  0  0  0  0  0
  127.7970  133.5860  102.9830 N   0  0  0  0  0  0  0  0  0  0  0  0
  128.0420  133.0920  101.6280 C   0  0  0  0  0  0  0  0  0  0  0  0
  128.5700  134.1540  100.5480 C   0  0  0  0  0  0  0  0  0  0  0  0
  130.0520  134.5240  100.6380 C   0  0  0  0  0  0  0  0  0  0  0  0
  130.5830  135.4730  101.5090 C   0  0  0  0  0  0  0  0  0  0  0  0
  131.9760  135.5730  101.3490 N   0  0  0  0  0  0  0  0  0  0  0  0
  132.3890  134.6690  100.3520 C   0  0  0  0  0  0  0  0  0  0  0  0
  133.6690  134.3830   99.8210 C   0  0  0  0  0  0  0  0  0  0  0  0
  133.7900  133.4300   98.8290 C   0  0  0  0  0  0  0  0  0  0  0  0
  132.6480  132.7500   98.3520 C   0  0  0  0  0  0  0  0  0  0  0  0
  131.3970  133.0380   98.8790 C   0  0  0  0  0  0  0  0  0  0  0  0
  131.2040  133.9960   99.8900 C   0  0  0  0  0  0  0  0  0  0  0  0
  126.7400  132.1480  101.2130 C   0  0  0  0  0  0  0  0  0  0  0  0
  125.6870  132.7830  101.1850 O   0  0  0  0  0  0  0  0  0  0  0  0
  126.7140  130.7430  100.9250 N   0  0  0  0  0  0  0  0  0  0  0  0
  127.8960  129.8280  100.9510 C   0  0  0  0  0  0  0  0  0  0  0  0
  128.0000  129.0030   99.6400 C   0  0  0  0  0  0  0  0  0  0  0  0
  126.7810  128.1280   99.3540 C   0  0  0  0  0  0  0  0  0  0  0  0
  125.4120  128.7930   99.5460 C   0  0  0  0  0  0  0  0  0  0  0  0
  125.4730  129.9980  100.6200 C   0  0  0  0  0  0  0  0  0  0  0  0
  124.4380  127.6890  100.1520 C   0  0  0  0  0  0  0  0  0  0  0  0
  123.3590  128.1940  101.1510 C   0  0  0  0  0  0  0  0  0  0  0  0
  123.4490  127.9650  102.5440 C   0  0  0  0  0  0  0  0  0  0  0  0
  122.4770  128.4240  103.4460 C   0  0  0  0  0  0  0  0  0  0  0  0
  121.3670  129.1310  102.9850 C   0  0  0  0  0  0  0  0  0  0  0  0
  121.2440  129.3720  101.6180 C   0  0  0  0  0  0  0  0  0  0  0  0
  122.2220  128.9100  100.7250 C   0  0  0  0  0  0  0  0  0  0  0  0
  124.8830  129.3020   98.1580 C   0  0  0  0  0  0  0  0  0  0  0  0
  124.7310  130.5180   98.0050 O   0  0  0  0  0  0  0  0  0  0  0  0
  124.5430  128.4380   97.0170 N   0  0  0  0  0  0  0  0  0  0  0  0
  124.0480  129.0320   95.7610 C   0  0  0  0  0  0  0  0  0  0  0  0
  124.6820  127.0000   97.0950 N   0  0  0  0  0  0  0  0  0  0  0  0
  123.3560  126.2640   97.0140 C   0  0  0  0  0  0  0  0  0  0  0  0
  125.4940  126.4990   95.9100 C   0  0  0  0  0  0  0  0  0  0  0  0
  126.7770  134.5050  105.5310 N   0  0  0  0  0  0  0  0  0  0  0  0
  1  2  1  0  0  0  0
  2  3  1  0  0  0  0
  2  4  1  0  0  0  0
  4  5  2  0  0  0  0
  4  6  1  0  0  0  0
  6  7  1  0  0  0  0
  7  8  1  0  0  0  0
  8  9  1  0  0  0  0
  9 10  2  0  0  0  0
 10 11  1  0  0  0  0
 11 12  1  0  0  0  0
 12 13  2  0  0  0  0
 13 14  1  0  0  0  0
 14 15  2  0  0  0  0
 15 16  1  0  0  0  0
  9 17  1  0  0  0  0
 12 17  1  0  0  0  0
 16 17  2  0  0  0  0
  7 18  1  0  0  0  0
 18 19  2  0  0  0  0
 18 20  1  0  0  0  0
 20 21  1  0  0  0  0
 21 22  1  0  0  0  0
 22 23  1  0  0  0  0
 23 24  1  0  0  0  0
 20 25  1  0  0  0  0
 24 25  1  0  0  0  0
 24 26  1  0  0  0  0
 26 27  1  0  0  0  0
 27 28  2  0  0  0  0
 28 29  1  0  0  0  0
 29 30  2  0  0  0  0
 30 31  1  0  0  0  0
 27 32  1  0  0  0  0
 31 32  2  0  0  0  0
 24 33  1  0  0  0  0
 33 34  2  0  0  0  0
 33 35  1  0  0  0  0
 35 36  1  0  0  0  0
 35 37  1  0  0  0  0
 37 38  1  0  0  0  0
 37 39  1  0  0  0  0
  2 40  1  0  0  0  0
M  END
$$$$
