8ZX5
  PyMOL3.1          3D                             0

 30 33  0  0  0  0  0  0  0  0999 V2000
  111.1240  113.8400   81.6000 Cl  0  0  0  0  0  0  0  0  0  0  0  0
  112.1120  111.3120   76.7780 Cl  0  0  0  0  0  0  0  0  0  0  0  0
  106.8420  111.3370   73.2590 C   0  0  0  0  0  0  0  0  0  0  0  0
  107.9870  111.7730   74.0990 C   0  0  0  0  0  0  0  0  0  0  0  0
  107.9510  111.9940   75.5040 C   0  0  0  0  0  0  0  0  0  0  0  0
  109.3020  112.4110   75.8580 N   0  0  0  0  0  0  0  0  0  0  0  0
  110.1110  112.4190   74.7010 N   0  0  0  0  0  0  0  0  0  0  0  0
  109.3350  112.0370   73.6330 C   0  0  0  0  0  0  0  0  0  0  0  0
  109.8150  111.9260   72.1880 C   0  0  0  0  0  0  0  0  0  0  0  0
  110.8480  111.3130   71.9060 O   0  0  0  0  0  0  0  0  0  0  0  0
  109.1040  112.5060   71.1630 N   0  0  0  0  0  0  0  0  0  0  0  0
  109.5260  112.4180   69.7890 N   0  0  0  0  0  0  0  0  0  0  0  0
  109.0970  113.6950   69.0590 C   0  0  0  0  0  0  0  0  0  0  0  0
  109.5620  113.5980   67.6190 C   0  0  0  0  0  0  0  0  0  0  0  0
  110.0650  112.2040   67.1960 C   0  0  0  0  0  0  0  0  0  0  0  0
  109.2530  111.0390   67.7790 C   0  0  0  0  0  0  0  0  0  0  0  0
  108.6970  111.3060   69.1570 C   0  0  0  0  0  0  0  0  0  0  0  0
  109.7770  112.7590   77.2710 C   0  0  0  0  0  0  0  0  0  0  0  0
  111.0140  112.3290   77.8210 C   0  0  0  0  0  0  0  0  0  0  0  0
  111.4450  112.6430   79.1260 C   0  0  0  0  0  0  0  0  0  0  0  0
  110.5990  113.4190   79.9160 C   0  0  0  0  0  0  0  0  0  0  0  0
  109.3700  113.8860   79.4660 C   0  0  0  0  0  0  0  0  0  0  0  0
  108.9720  113.5540   78.1470 C   0  0  0  0  0  0  0  0  0  0  0  0
  106.7760  111.8650   76.4890 C   0  0  0  0  0  0  0  0  0  0  0  0
  105.5400  112.5380   76.2850 C   0  0  0  0  0  0  0  0  0  0  0  0
  104.4320  112.4420   77.1790 C   0  0  0  0  0  0  0  0  0  0  0  0
  104.5820  111.6570   78.3040 C   0  0  0  0  0  0  0  0  0  0  0  0
  105.7470  110.9780   78.5850 C   0  0  0  0  0  0  0  0  0  0  0  0
  106.8360  111.0810   77.6710 C   0  0  0  0  0  0  0  0  0  0  0  0
  102.9220  111.4860   79.6970 I   0  0  0  0  0  0  0  0  0  0  0  0
  3  4  1  0  0  0  0
  4  5  2  0  0  0  0
  5  6  1  0  0  0  0
  6  7  1  0  0  0  0
  4  8  1  0  0  0  0
  7  8  2  0  0  0  0
  8  9  1  0  0  0  0
  9 10  2  0  0  0  0
  9 11  1  0  0  0  0
 11 12  1  0  0  0  0
 12 13  1  0  0  0  0
 13 14  1  0  0  0  0
 14 15  1  0  0  0  0
 15 16  1  0  0  0  0
 12 17  1  0  0  0  0
 16 17  1  0  0  0  0
  6 18  1  0  0  0  0
  2 19  1  0  0  0  0
 18 19  1  0  0  0  0
 19 20  2  0  0  0  0
  1 21  1  0  0  0  0
 20 21  1  0  0  0  0
 21 22  2  0  0  0  0
 18 23  2  0  0  0  0
 22 23  1  0  0  0  0
  5 24  1  0  0  0  0
 24 25  2  0  0  0  0
 25 26  1  0  0  0  0
 26 27  2  0  0  0  0
 27 28  1  0  0  0  0
 24 29  1  0  0  0  0
 28 29  2  0  0  0  0
 27 30  1  0  0  0  0
M  END
$$$$
