8F0Q
  PyMOL3.1          3D                             0

 35 38  0  0  0  0  0  0  0  0999 V2000
  128.0860  162.5100  189.2730 Cl  0  0  0  0  0  0  0  0  0  0  0  0
  133.2890  161.1730  188.7870 Cl  0  0  0  0  0  0  0  0  0  0  0  0
  130.9850  162.9050  183.9570 C   0  0  0  0  0  0  0  0  0  0  0  0
  131.9840  164.9880  185.0070 N   0  0  0  0  0  0  0  0  0  0  0  0
  134.8860  169.1330  185.9230 O   0  0  0  0  0  0  0  0  0  0  0  0
  135.3570  176.9790  187.7370 S   0  0  0  0  0  0  0  0  0  0  0  0
  130.8560  163.9530  185.0690 C   0  0  0  0  0  0  0  0  0  0  0  0
  135.2630  175.3500  187.5120 N   0  0  0  0  0  0  0  0  0  0  0  0
  134.7110  175.4810  185.3090 O   0  0  0  0  0  0  0  0  0  0  0  0
  132.1280  165.6690  183.6680 C   0  0  0  0  0  0  0  0  0  0  0  0
  135.9150  177.1750  189.0520 O   0  0  0  0  0  0  0  0  0  0  0  0
  133.3660  166.5470  183.6550 C   0  0  0  0  0  0  0  0  0  0  0  0
  136.0470  177.5510  186.5970 O   0  0  0  0  0  0  0  0  0  0  0  0
  133.3910  167.5670  184.7900 C   0  0  0  0  0  0  0  0  0  0  0  0
  134.7330  168.3090  184.7680 C   0  0  0  0  0  0  0  0  0  0  0  0
  134.8610  170.4980  185.9020 C   0  0  0  0  0  0  0  0  0  0  0  0
  135.2650  171.0620  187.1220 C   0  0  0  0  0  0  0  0  0  0  0  0
  135.2980  172.4650  187.2470 C   0  0  0  0  0  0  0  0  0  0  0  0
  134.9060  173.2970  186.2030 C   0  0  0  0  0  0  0  0  0  0  0  0
  134.9450  174.7770  186.2790 C   0  0  0  0  0  0  0  0  0  0  0  0
  133.6430  177.4790  187.7120 C   0  0  0  0  0  0  0  0  0  0  0  0
  134.5330  172.7080  185.0020 C   0  0  0  0  0  0  0  0  0  0  0  0
  134.4950  171.3220  184.8450 C   0  0  0  0  0  0  0  0  0  0  0  0
  135.6660  170.1830  188.2870 C   0  0  0  0  0  0  0  0  0  0  0  0
  134.6230  169.3160  188.9410 C   0  0  0  0  0  0  0  0  0  0  0  0
  135.1640  170.5050  189.6680 C   0  0  0  0  0  0  0  0  0  0  0  0
  133.1360  166.8740  186.1310 C   0  0  0  0  0  0  0  0  0  0  0  0
  131.8790  166.0290  186.1030 C   0  0  0  0  0  0  0  0  0  0  0  0
  130.8030  163.2290  186.4120 C   0  0  0  0  0  0  0  0  0  0  0  0
  129.6090  163.1970  187.1510 C   0  0  0  0  0  0  0  0  0  0  0  0
  129.5610  162.5410  188.3830 C   0  0  0  0  0  0  0  0  0  0  0  0
  130.6920  161.9120  188.8980 C   0  0  0  0  0  0  0  0  0  0  0  0
  131.8780  161.9430  188.1710 C   0  0  0  0  0  0  0  0  0  0  0  0
  131.9400  162.5960  186.9400 C   0  0  0  0  0  0  0  0  0  0  0  0
  134.1740  173.4660  183.9600 F   0  0  0  0  0  0  0  0  0  0  0  0
  3  7  1  0  0  0  0
  4  7  1  0  0  0  0
  6  8  1  0  0  0  0
  4 10  1  0  0  0  0
  6 11  2  0  0  0  0
 10 12  1  0  0  0  0
  6 13  2  0  0  0  0
 12 14  1  0  0  0  0
  5 15  1  0  0  0  0
 14 15  1  0  0  0  0
  5 16  1  0  0  0  0
 16 17  2  0  0  0  0
 17 18  1  0  0  0  0
 18 19  2  0  0  0  0
  8 20  1  0  0  0  0
  9 20  2  0  0  0  0
 19 20  1  0  0  0  0
  6 21  1  0  0  0  0
 19 22  1  0  0  0  0
 16 23  1  0  0  0  0
 22 23  2  0  0  0  0
 17 24  1  0  0  0  0
 24 25  1  0  0  0  0
 24 26  1  0  0  0  0
 25 26  1  0  0  0  0
 14 27  1  0  0  0  0
  4 28  1  0  0  0  0
 27 28  1  0  0  0  0
  7 29  1  0  0  0  0
 29 30  1  0  0  0  0
  1 31  1  0  0  0  0
 30 31  2  0  0  0  0
 31 32  1  0  0  0  0
  2 33  1  0  0  0  0
 32 33  2  0  0  0  0
 29 34  2  0  0  0  0
 33 34  1  0  0  0  0
 22 35  1  0  0  0  0
M  END
$$$$
