8GM5
  PyMOL3.1          3D                             0

 21 23  0  0  0  0  0  0  0  0999 V2000
    5.6320    3.5080   20.3040 C   0  0  0  0  0  0  0  0  0  0  0  0
    4.9490    2.3380   20.7670 N   0  0  0  0  0  0  0  0  0  0  0  0
    5.5110    1.0510   20.6250 C   0  0  0  0  0  0  0  0  0  0  0  0
    6.8170    0.9120   19.9940 N   0  0  0  0  0  0  0  0  0  0  0  0
    7.5300    2.0460   19.5190 C   0  0  0  0  0  0  0  0  0  0  0  0
    6.9540    3.3320   19.6710 C   0  0  0  0  0  0  0  0  0  0  0  0
    8.7490    1.8820   18.9420 N   0  0  0  0  0  0  0  0  0  0  0  0
    9.4440    2.9870   18.4870 C   0  0  0  0  0  0  0  0  0  0  0  0
    8.9360    4.3240   18.5950 C   0  0  0  0  0  0  0  0  0  0  0  0
    7.6840    4.4440   19.1980 C   0  0  0  0  0  0  0  0  0  0  0  0
    3.5910    2.4530   21.4200 C   0  0  0  0  0  0  0  0  0  0  0  0
    2.4240    2.1670   20.4710 C   0  0  0  0  0  0  0  0  0  0  0  0
    4.9090    0.0650   21.0280 O   0  0  0  0  0  0  0  0  0  0  0  0
    5.0880    4.5900   20.4570 O   0  0  0  0  0  0  0  0  0  0  0  0
   10.6550    2.7000   17.9190 N   0  0  0  0  0  0  0  0  0  0  0  0
    9.7330    5.4580   18.0770 C   0  0  0  0  0  0  0  0  0  0  0  0
   10.9040    5.3000   17.6890 O   0  0  0  0  0  0  0  0  0  0  0  0
    9.2330    6.7510   17.9710 N   0  0  0  0  0  0  0  0  0  0  0  0
    7.3390   -0.4750   19.8750 C   0  0  0  0  0  0  0  0  0  0  0  0
    6.5970   -1.6460   19.1800 C   0  0  0  0  0  0  0  0  0  0  0  0
    7.8470   -1.0790   18.5470 C   0  0  0  0  0  0  0  0  0  0  0  0
  1  2  1  0  0  0  0
  2  3  1  0  0  0  0
  3  4  1  0  0  0  0
  4  5  1  0  0  0  0
  1  6  1  0  0  0  0
  5  6  1  0  0  0  0
  5  7  2  0  0  0  0
  7  8  1  0  0  0  0
  8  9  2  0  0  0  0
  6 10  2  0  0  0  0
  9 10  1  0  0  0  0
  2 11  1  0  0  0  0
 11 12  1  0  0  0  0
  3 13  2  0  0  0  0
  1 14  2  0  0  0  0
  8 15  1  0  0  0  0
  9 16  1  0  0  0  0
 16 17  2  0  0  0  0
 16 18  1  0  0  0  0
  4 19  1  0  0  0  0
 19 20  1  0  0  0  0
 19 21  1  0  0  0  0
 20 21  1  0  0  0  0
M  END
$$$$
