7L00
  PyMOL3.1          3D                             0

 27 30  0  0  0  0  0  0  0  0999 V2000
  -21.7630   35.2290   41.0080 C   0  0  0  0  0  0  0  0  0  0  0  0
  -20.2250   35.2870   40.0740 S   0  0  0  0  0  0  0  0  0  0  0  0
  -19.6270   33.6210   39.9300 C   0  0  0  0  0  0  0  0  0  0  0  0
  -19.7260   32.8430   41.0770 C   0  0  0  0  0  0  0  0  0  0  0  0
  -19.2900   31.5360   41.0340 C   0  0  0  0  0  0  0  0  0  0  0  0
  -18.7660   31.0690   39.8300 C   0  0  0  0  0  0  0  0  0  0  0  0
  -18.6710   31.8640   38.6730 C   0  0  0  0  0  0  0  0  0  0  0  0
  -19.1020   33.1720   38.7190 C   0  0  0  0  0  0  0  0  0  0  0  0
  -18.3090   29.7220   39.8240 N   0  0  0  0  0  0  0  0  0  0  0  0
  -18.5120   29.2090   41.0600 C   0  0  0  0  0  0  0  0  0  0  0  0
  -19.2250   30.2930   42.1460 S   0  0  0  0  0  0  0  0  0  0  0  0
  -18.2040   27.8470   41.2500 N   0  0  0  0  0  0  0  0  0  0  0  0
  -18.5780   27.2120   42.4810 C   0  0  0  0  0  0  0  0  0  0  0  0
  -18.2950   25.7270   42.5530 C   0  0  0  0  0  0  0  0  0  0  0  0
  -17.0990   25.5040   43.4440 C   0  0  0  0  0  0  0  0  0  0  0  0
  -15.7930   25.0970   43.0740 C   0  0  0  0  0  0  0  0  0  0  0  0
  -14.8600   24.9950   44.3780 S   0  0  0  0  0  0  0  0  0  0  0  0
  -16.0090   25.4310   45.4660 C   0  0  0  0  0  0  0  0  0  0  0  0
  -15.8930   25.5490   46.8850 N   0  0  0  0  0  0  0  0  0  0  0  0
  -14.8840   26.1240   47.5450 C   0  0  0  0  0  0  0  0  0  0  0  0
  -15.1950   26.0070   48.8860 C   0  0  0  0  0  0  0  0  0  0  0  0
  -16.4050   25.3580   48.9990 C   0  0  0  0  0  0  0  0  0  0  0  0
  -16.8380   25.0780   47.7200 C   0  0  0  0  0  0  0  0  0  0  0  0
  -17.2230   25.6920   44.8700 N   0  0  0  0  0  0  0  0  0  0  0  0
  -19.0570   27.8300   43.3870 O   0  0  0  0  0  0  0  0  0  0  0  0
  -19.2310   36.1460   40.7570 O   0  0  0  0  0  0  0  0  0  0  0  0
  -20.4150   35.8860   38.7590 O   0  0  0  0  0  0  0  0  0  0  0  0
  1  2  1  0  0  0  0
  2  3  1  0  0  0  0
  3  4  1  0  0  0  0
  4  5  2  0  0  0  0
  5  6  1  0  0  0  0
  6  7  2  0  0  0  0
  3  8  2  0  0  0  0
  7  8  1  0  0  0  0
  6  9  1  0  0  0  0
  9 10  2  0  0  0  0
  5 11  1  0  0  0  0
 10 11  1  0  0  0  0
 10 12  1  0  0  0  0
 12 13  1  0  0  0  0
 13 14  1  0  0  0  0
 14 15  1  0  0  0  0
 15 16  2  0  0  0  0
 16 17  1  0  0  0  0
 17 18  1  0  0  0  0
 18 19  1  0  0  0  0
 19 20  1  0  0  0  0
 20 21  2  0  0  0  0
 21 22  1  0  0  0  0
 19 23  1  0  0  0  0
 22 23  2  0  0  0  0
 15 24  1  0  0  0  0
 18 24  2  0  0  0  0
 13 25  2  0  0  0  0
  2 26  2  0  0  0  0
  2 27  2  0  0  0  0
M  END
$$$$
