7B6W
  PyMOL3.1          3D                             0

 59 63  0  0  0  0  0  0  0  0999 V2000
    5.0640   26.4670  -13.7110 C   0  0  0  0  0  0  0  0  0  0  0  0
    3.8550   26.0480  -13.2220 N   0  0  0  0  0  0  0  0  0  0  0  0
    6.1070   25.9530  -13.3100 O   0  0  0  0  0  0  0  0  0  0  0  0
    3.8180   24.9150  -12.2760 C   0  0  0  0  0  0  0  0  0  0  0  0
    1.5620   25.7030  -11.8430 N   0  0  0  0  0  0  0  0  0  0  0  0
   -2.5080   30.0200   -6.9600 O   0  0  0  0  0  0  0  0  0  0  0  0
    2.7530   25.1130  -11.2240 C   0  0  0  0  0  0  0  0  0  0  0  0
   -0.4330   26.9220  -11.7810 N   0  0  0  0  0  0  0  0  0  0  0  0
   -0.3700   29.1410   -5.8400 O   0  0  0  0  0  0  0  0  0  0  0  0
    0.6450   26.4960  -11.1350 C   0  0  0  0  0  0  0  0  0  0  0  0
   -2.3970   28.1000  -11.8480 N   0  0  0  0  0  0  0  0  0  0  0  0
    4.0610   28.1020  -15.2470 O   0  0  0  0  0  0  0  0  0  0  0  0
   -1.3200   27.7000  -11.1580 C   0  0  0  0  0  0  0  0  0  0  0  0
    0.9310   26.8200   -9.8440 N   0  0  0  0  0  0  0  0  0  0  0  0
   -1.1230   28.1020   -9.7890 C   0  0  0  0  0  0  0  0  0  0  0  0
   -2.0060   28.9260   -9.0540 C   0  0  0  0  0  0  0  0  0  0  0  0
   -1.7230   29.2480   -7.7580 C   0  0  0  0  0  0  0  0  0  0  0  0
   -3.4240   30.8880   -7.6200 C   0  0  0  0  0  0  0  0  0  0  0  0
   -0.5340   28.7530   -7.1320 C   0  0  0  0  0  0  0  0  0  0  0  0
    0.8460   28.7680   -5.2000 C   0  0  0  0  0  0  0  0  0  0  0  0
    0.3270   27.9630   -7.8250 C   0  0  0  0  0  0  0  0  0  0  0  0
    0.0510   27.6190   -9.1640 C   0  0  0  0  0  0  0  0  0  0  0  0
    1.4270   25.5120  -13.2960 C   0  0  0  0  0  0  0  0  0  0  0  0
    2.6020   26.2320  -13.9980 C   0  0  0  0  0  0  0  0  0  0  0  0
    2.7760   25.8220  -15.4540 C   0  0  0  0  0  0  0  0  0  0  0  0
    2.7180   24.3110  -15.6300 C   0  0  0  0  0  0  0  0  0  0  0  0
    1.4200   23.7350  -15.0970 C   0  0  0  0  0  0  0  0  0  0  0  0
    1.2820   24.0270  -13.6110 C   0  0  0  0  0  0  0  0  0  0  0  0
    5.1800   27.5270  -14.7050 C   0  0  0  0  0  0  0  0  0  0  0  0
    6.2880   28.0980  -15.2330 C   0  0  0  0  0  0  0  0  0  0  0  0
    5.8540   29.0800  -16.1530 C   0  0  0  0  0  0  0  0  0  0  0  0
    4.4870   29.0480  -16.1320 C   0  0  0  0  0  0  0  0  0  0  0  0
    3.6330   24.0900  -12.7700 H   0  0  0  0  0  0  0  0  0  0  0  0
    4.6930   24.8220  -11.8430 H   0  0  0  0  0  0  0  0  0  0  0  0
    3.0850   25.7090  -10.5200 H   0  0  0  0  0  0  0  0  0  0  0  0
    2.5180   24.2510  -10.8180 H   0  0  0  0  0  0  0  0  0  0  0  0
   -2.9980   28.6150  -11.4630 H   0  0  0  0  0  0  0  0  0  0  0  0
   -2.4980   27.8490  -12.6860 H   0  0  0  0  0  0  0  0  0  0  0  0
   -2.7900   29.2500   -9.4530 H   0  0  0  0  0  0  0  0  0  0  0  0
   -4.0450   30.3610   -8.1490 H   0  0  0  0  0  0  0  0  0  0  0  0
   -2.9350   31.4930   -8.2010 H   0  0  0  0  0  0  0  0  0  0  0  0
   -3.9170   31.4010   -6.9590 H   0  0  0  0  0  0  0  0  0  0  0  0
    1.5970   29.0960   -5.7200 H   0  0  0  0  0  0  0  0  0  0  0  0
    0.8940   27.8000   -5.1370 H   0  0  0  0  0  0  0  0  0  0  0  0
    0.8750   29.1540   -4.3090 H   0  0  0  0  0  0  0  0  0  0  0  0
    1.1050   27.6460   -7.4130 H   0  0  0  0  0  0  0  0  0  0  0  0
    0.5840   25.9330  -13.5890 H   0  0  0  0  0  0  0  0  0  0  0  0
    2.4030   27.1890  -13.9880 H   0  0  0  0  0  0  0  0  0  0  0  0
    3.6350   26.1550  -15.7800 H   0  0  0  0  0  0  0  0  0  0  0  0
    2.0750   26.2390  -15.9900 H   0  0  0  0  0  0  0  0  0  0  0  0
    3.4770   23.9010  -15.1560 H   0  0  0  0  0  0  0  0  0  0  0  0
    2.8040   24.0940  -16.5860 H   0  0  0  0  0  0  0  0  0  0  0  0
    1.4050   22.7620  -15.2410 H   0  0  0  0  0  0  0  0  0  0  0  0
    0.6590   24.1300  -15.5790 H   0  0  0  0  0  0  0  0  0  0  0  0
    0.4100   23.7180  -13.2990 H   0  0  0  0  0  0  0  0  0  0  0  0
    1.9640   23.5290  -13.1190 H   0  0  0  0  0  0  0  0  0  0  0  0
    7.1750   27.8810  -15.0250 H   0  0  0  0  0  0  0  0  0  0  0  0
    6.3930   29.6390  -16.6760 H   0  0  0  0  0  0  0  0  0  0  0  0
    3.9220   29.5950  -16.6460 H   0  0  0  0  0  0  0  0  0  0  0  0
  1  2  1  0  0  0  0
  1  3  2  0  0  0  0
  2  4  1  0  0  0  0
  4  7  1  0  0  0  0
  5  7  1  0  0  0  0
  5 10  1  0  0  0  0
  8 10  1  0  0  0  0
  8 13  2  0  0  0  0
 11 13  1  0  0  0  0
 10 14  2  0  0  0  0
 13 15  1  0  0  0  0
 15 16  1  0  0  0  0
  6 17  1  0  0  0  0
 16 17  2  0  0  0  0
  6 18  1  0  0  0  0
  9 19  1  0  0  0  0
 17 19  1  0  0  0  0
  9 20  1  0  0  0  0
 19 21  2  0  0  0  0
 14 22  1  0  0  0  0
 15 22  2  0  0  0  0
 21 22  1  0  0  0  0
  5 23  1  0  0  0  0
  2 24  1  0  0  0  0
 23 24  1  0  0  0  0
 24 25  1  0  0  0  0
 25 26  1  0  0  0  0
 26 27  1  0  0  0  0
 23 28  1  0  0  0  0
 27 28  1  0  0  0  0
  1 29  1  0  0  0  0
 12 29  1  0  0  0  0
 29 30  2  0  0  0  0
 30 31  1  0  0  0  0
 12 32  1  0  0  0  0
 31 32  2  0  0  0  0
  4 33  1  0  0  0  0
  4 34  1  0  0  0  0
  7 35  1  0  0  0  0
  7 36  1  0  0  0  0
 11 37  1  0  0  0  0
 11 38  1  0  0  0  0
 16 39  1  0  0  0  0
 18 40  1  0  0  0  0
 18 41  1  0  0  0  0
 18 42  1  0  0  0  0
 20 43  1  0  0  0  0
 20 44  1  0  0  0  0
 20 45  1  0  0  0  0
 21 46  1  0  0  0  0
 23 47  1  0  0  0  0
 24 48  1  0  0  0  0
 25 49  1  0  0  0  0
 25 50  1  0  0  0  0
 26 51  1  0  0  0  0
 26 52  1  0  0  0  0
 27 53  1  0  0  0  0
 27 54  1  0  0  0  0
 28 55  1  0  0  0  0
 28 56  1  0  0  0  0
 30 57  1  0  0  0  0
 31 58  1  0  0  0  0
 32 59  1  0  0  0  0
M  END
$$$$
