7SXG
  PyMOL3.1          3D                             0

 34 38  0  0  0  0  0  0  0  0999 V2000
  -17.6154  -13.8159   11.5027 C   0  0  0  0  0  0  0  0  0  0  0  0
  -18.0848  -12.4777   12.0445 C   0  0  0  0  0  0  0  0  0  0  0  0
  -18.1152  -12.4734   13.5664 C   0  0  0  0  0  0  0  0  0  0  0  0
  -16.7824  -12.9331   14.1764 C   0  0  0  0  0  0  0  0  0  0  0  0
  -16.4624  -12.5287   15.2470 O   0  0  0  0  0  0  0  0  0  0  0  0
  -15.8580  -13.9122   13.3943 C   0  0  0  0  0  0  0  0  0  0  0  0
  -16.1591  -14.1269   11.9396 C   0  0  0  0  0  0  0  0  0  0  0  0
  -15.3902  -15.0665   11.1778 N   0  0  0  0  0  0  0  0  0  0  0  0
  -14.4198  -15.9837   11.7953 C   0  0  0  0  0  0  0  0  0  0  0  0
  -13.4808  -16.7982   11.2821 N   0  0  0  0  0  0  0  0  0  0  0  0
  -12.8239  -17.4498   12.3311 N   0  0  0  0  0  0  0  0  0  0  0  0
  -13.3518  -17.0442   13.5228 C   0  0  0  0  0  0  0  0  0  0  0  0
  -14.3582  -16.1039   13.2157 C   0  0  0  0  0  0  0  0  0  0  0  0
  -15.3913  -15.2380   14.0261 C   0  0  0  0  0  0  0  0  0  0  0  0
  -14.1817  -14.4216   14.6020 C   0  0  0  0  0  0  0  0  0  0  0  0
  -13.3071  -13.5881   13.6453 C   0  0  0  0  0  0  0  0  0  0  0  0
  -15.7174  -15.6671   15.4701 C   0  0  0  0  0  0  0  0  0  0  0  0
  -14.7254  -15.9288   16.4284 C   0  0  0  0  0  0  0  0  0  0  0  0
  -15.0658  -16.3447   17.7221 C   0  0  0  0  0  0  0  0  0  0  0  0
  -16.4014  -16.5195   18.0557 C   0  0  0  0  0  0  0  0  0  0  0  0
  -17.3928  -16.2745   17.0981 C   0  0  0  0  0  0  0  0  0  0  0  0
  -17.0492  -15.8621   15.8087 C   0  0  0  0  0  0  0  0  0  0  0  0
  -14.0349  -16.5762   18.6669 C   0  0  0  0  0  0  0  0  0  0  0  0
  -12.9931  -17.4567   18.3685 C   0  0  0  0  0  0  0  0  0  0  0  0
  -11.9969  -17.6530   19.3212 C   0  0  0  0  0  0  0  0  0  0  0  0
  -12.0268  -17.0250   20.4879 N   0  0  0  0  0  0  0  0  0  0  0  0
  -13.0054  -16.1800   20.7938 C   0  0  0  0  0  0  0  0  0  0  0  0
  -14.0442  -15.9221   19.9059 C   0  0  0  0  0  0  0  0  0  0  0  0
  -15.0730  -15.0211   20.2439 O   0  0  0  0  0  0  0  0  0  0  0  0
  -15.2715  -14.8226   21.6227 C   0  0  0  0  0  0  0  0  0  0  0  0
  -17.1511  -11.3678   11.5635 C   0  0  0  0  0  0  0  0  0  0  0  0
  -19.4976  -12.2130   11.4713 C   0  0  0  0  0  0  0  0  0  0  0  0
  -17.6795  -13.7959   10.1440 F   0  0  0  0  0  0  0  0  0  0  0  0
  -12.9383  -18.1229   17.1770 F   0  0  0  0  0  0  0  0  0  0  0  0
  1  2  1  0  0  0  0
  2  3  1  0  0  0  0
  3  4  1  0  0  0  0
  4  5  1  0  0  0  0
  4  6  1  0  0  0  0
  1  7  1  0  0  0  0
  6  7  2  0  0  0  0
  7  8  1  0  0  0  0
  8  9  1  0  0  0  0
  9 10  2  0  0  0  0
 10 11  1  0  0  0  0
 11 12  1  0  0  0  0
  9 13  1  0  0  0  0
 12 13  2  0  0  0  0
  6 14  1  0  0  0  0
 13 14  1  0  0  0  0
 14 15  1  0  0  0  0
 15 16  1  0  0  0  0
 14 17  1  0  0  0  0
 17 18  2  0  0  0  0
 18 19  1  0  0  0  0
 19 20  2  0  0  0  0
 20 21  1  0  0  0  0
 17 22  1  0  0  0  0
 21 22  2  0  0  0  0
 19 23  1  0  0  0  0
 23 24  1  0  0  0  0
 24 25  2  0  0  0  0
 25 26  1  0  0  0  0
 26 27  2  0  0  0  0
 23 28  2  0  0  0  0
 27 28  1  0  0  0  0
 28 29  1  0  0  0  0
 29 30  1  0  0  0  0
  2 31  1  0  0  0  0
  2 32  1  0  0  0  0
  1 33  1  0  0  0  0
 24 34  1  0  0  0  0
M  END
$$$$
