8QK2
  PyMOL3.1          3D                             0

 39 42  0  0  0  0  0  0  0  0999 V2000
    3.6640    7.2380    4.3350 C   0  0  0  0  0  0  0  0  0  0  0  0
    3.4180    8.5510    4.1790 N   0  0  0  0  0  0  0  0  0  0  0  0
    4.3130    9.4590    4.6200 C   0  0  0  0  0  0  0  0  0  0  0  0
    5.3840    9.0680    5.3480 N   0  0  0  0  0  0  0  0  0  0  0  0
    5.6570    7.7650    5.5360 C   0  0  0  0  0  0  0  0  0  0  0  0
    4.8100    6.8170    5.0110 C   0  0  0  0  0  0  0  0  0  0  0  0
    3.9960   10.8160    4.5900 N   0  0  0  0  0  0  0  0  0  0  0  0
    5.1480   11.6770    4.6730 C   0  0  0  0  0  0  0  0  0  0  0  0
    4.6470   13.0080    5.2250 C   0  0  0  0  0  0  0  0  0  0  0  0
    3.1230   11.2220    3.5280 C   0  0  0  0  0  0  0  0  0  0  0  0
    2.5100   12.5810    3.9590 C   0  0  0  0  0  0  0  0  0  0  0  0
    3.6230   13.5740    4.3040 N   0  0  0  0  0  0  0  0  0  0  0  0
    3.0100   15.0030    4.9070 S   0  0  0  0  0  0  0  0  0  0  0  0
    2.0250   14.7050    6.3430 C   0  0  0  0  0  0  0  0  0  0  0  0
    4.1220   15.8720    5.2150 O   0  0  0  0  0  0  0  0  0  0  0  0
    2.2060   15.5740    3.9030 O   0  0  0  0  0  0  0  0  0  0  0  0
    0.7190   14.3410    6.1740 C   0  0  0  0  0  0  0  0  0  0  0  0
   -0.0770   14.0680    7.2590 C   0  0  0  0  0  0  0  0  0  0  0  0
    0.4000   14.1880    8.5560 C   0  0  0  0  0  0  0  0  0  0  0  0
    2.5580   14.8320    7.6580 C   0  0  0  0  0  0  0  0  0  0  0  0
    1.7320   14.5550    8.7740 C   0  0  0  0  0  0  0  0  0  0  0  0
   -0.4700   13.8320    9.6040 N   0  0  0  0  0  0  0  0  0  0  0  0
   -0.3000   14.1480   10.9270 C   0  0  0  0  0  0  0  0  0  0  0  0
    0.6490   14.8240   11.3130 O   0  0  0  0  0  0  0  0  0  0  0  0
   -1.3580   13.6650   11.9060 C   0  0  0  0  0  0  0  0  0  0  0  0
   -1.8130   12.3490   11.8240 C   0  0  0  0  0  0  0  0  0  0  0  0
   -2.7970   11.8970   12.6860 C   0  0  0  0  0  0  0  0  0  0  0  0
   -3.3660   12.7640   13.6100 C   0  0  0  0  0  0  0  0  0  0  0  0
   -2.9370   14.0840   13.6920 C   0  0  0  0  0  0  0  0  0  0  0  0
   -1.9540   14.5520   12.8220 C   0  0  0  0  0  0  0  0  0  0  0  0
   -1.4620   15.9230   12.9370 N   0  0  0  0  0  0  0  0  0  0  0  0
   -1.6200   16.4270   14.3210 C   0  0  0  0  0  0  0  0  0  0  0  0
   -2.2070   16.9070   11.8770 S   0  0  0  0  0  0  0  0  0  0  0  0
   -3.8770   17.2200   12.4230 C   0  0  0  0  0  0  0  0  0  0  0  0
   -1.4820   18.1380   11.7870 O   0  0  0  0  0  0  0  0  0  0  0  0
   -2.2280   16.3000   10.6100 O   0  0  0  0  0  0  0  0  0  0  0  0
    6.9140    7.3600    6.3070 C   0  0  0  0  0  0  0  0  0  0  0  0
    2.7670    6.2880    3.7870 C   0  0  0  0  0  0  0  0  0  0  0  0
    1.9750    5.6370    3.3010 N   0  0  0  0  0  0  0  0  0  0  0  0
  1  2  2  0  0  0  0
  2  3  1  0  0  0  0
  3  4  2  0  0  0  0
  4  5  1  0  0  0  0
  1  6  1  0  0  0  0
  5  6  2  0  0  0  0
  3  7  1  0  0  0  0
  7  8  1  0  0  0  0
  8  9  1  0  0  0  0
  7 10  1  0  0  0  0
 10 11  1  0  0  0  0
  9 12  1  0  0  0  0
 11 12  1  0  0  0  0
 12 13  1  0  0  0  0
 13 14  1  0  0  0  0
 13 15  2  0  0  0  0
 13 16  2  0  0  0  0
 14 17  2  0  0  0  0
 17 18  1  0  0  0  0
 18 19  2  0  0  0  0
 14 20  1  0  0  0  0
 19 21  1  0  0  0  0
 20 21  2  0  0  0  0
 19 22  1  0  0  0  0
 22 23  1  0  0  0  0
 23 24  2  0  0  0  0
 23 25  1  0  0  0  0
 25 26  2  0  0  0  0
 26 27  1  0  0  0  0
 27 28  2  0  0  0  0
 28 29  1  0  0  0  0
 25 30  1  0  0  0  0
 29 30  2  0  0  0  0
 30 31  1  0  0  0  0
 31 32  1  0  0  0  0
 31 33  1  0  0  0  0
 33 34  1  0  0  0  0
 33 35  2  0  0  0  0
 33 36  2  0  0  0  0
  5 37  1  0  0  0  0
  1 38  1  0  0  0  0
 38 39  3  0  0  0  0
M  END
$$$$
