8EVO
  PyMOL3.1          3D                             0

 19 20  0  0  0  0  0  0  0  0999 V2000
   -8.6590   11.9600    2.8870 Cl  0  0  0  0  0  0  0  0  0  0  0  0
  -11.1230   10.1110    2.9370 C   0  0  0  0  0  0  0  0  0  0  0  0
   -9.9850    9.6710    3.6290 C   0  0  0  0  0  0  0  0  0  0  0  0
  -10.0240    8.4380    4.2930 C   0  0  0  0  0  0  0  0  0  0  0  0
  -11.1980    7.6700    4.2550 C   0  0  0  0  0  0  0  0  0  0  0  0
  -12.2980    8.1190    3.5760 C   0  0  0  0  0  0  0  0  0  0  0  0
  -12.2590    9.3530    2.9100 C   0  0  0  0  0  0  0  0  0  0  0  0
   -8.7990   10.4320    3.6740 C   0  0  0  0  0  0  0  0  0  0  0  0
   -7.7000   10.0140    4.3300 N   0  0  0  0  0  0  0  0  0  0  0  0
   -7.7260    8.8390    4.9820 C   0  0  0  0  0  0  0  0  0  0  0  0
   -8.8740    8.0230    4.9760 C   0  0  0  0  0  0  0  0  0  0  0  0
   -6.4650    8.4360    5.6950 C   0  0  0  0  0  0  0  0  0  0  0  0
   -5.6180    9.2900    5.9500 O   0  0  0  0  0  0  0  0  0  0  0  0
   -6.3290    7.1280    5.9640 N   0  0  0  0  0  0  0  0  0  0  0  0
   -5.1630    6.5750    6.6310 C   0  0  0  0  0  0  0  0  0  0  0  0
   -4.6510    5.2680    6.0220 C   0  0  0  0  0  0  0  0  0  0  0  0
   -5.1420    4.2000    6.4510 O   0  5  0  0  0  0  0  0  0  0  0  0
   -3.7690    5.3580    5.1420 O   0  0  0  0  0  0  0  0  0  0  0  0
   -8.8930    6.8400    5.6200 O   0  0  0  0  0  0  0  0  0  0  0  0
  2  3  2  0  0  0  0
  3  4  1  0  0  0  0
  4  5  2  0  0  0  0
  5  6  1  0  0  0  0
  2  7  1  0  0  0  0
  6  7  2  0  0  0  0
  1  8  1  0  0  0  0
  3  8  1  0  0  0  0
  8  9  2  0  0  0  0
  9 10  1  0  0  0  0
  4 11  1  0  0  0  0
 10 11  2  0  0  0  0
 10 12  1  0  0  0  0
 12 13  2  0  0  0  0
 12 14  1  0  0  0  0
 14 15  1  0  0  0  0
 15 16  1  0  0  0  0
 16 17  1  0  0  0  0
 16 18  2  0  0  0  0
 11 19  1  0  0  0  0
M  END
$$$$
