7LJC
  PyMOL3.1          3D                             0

 30 32  0  0  0  0  0  0  0  0999 V2000
   77.2010  100.7820   92.2510 Cl  0  0  0  0  0  0  0  0  0  0  0  0
   72.9890   97.9470   94.2800 Cl  0  0  0  0  0  0  0  0  0  0  0  0
   73.4620  103.0850   98.4030 O   0  0  0  0  0  0  0  0  0  0  0  0
   74.2360  102.0670   97.7790 C   0  0  0  0  0  0  0  0  0  0  0  0
   75.3130  102.7280   96.8860 C   0  0  0  0  0  0  0  0  0  0  0  0
   76.0000  101.7900   95.9470 N   0  0  0  0  0  0  0  0  0  0  0  0
   75.0970  101.0340   95.0220 C   0  0  0  0  0  0  0  0  0  0  0  0
   75.4880   99.6560   94.5200 C   0  0  0  0  0  0  0  0  0  0  0  0
   75.0370   99.3290   93.1010 C   0  0  0  0  0  0  0  0  0  0  0  0
   73.9030   98.5420   92.9030 C   0  0  0  0  0  0  0  0  0  0  0  0
   73.4940   98.2320   91.6070 C   0  0  0  0  0  0  0  0  0  0  0  0
   74.2220   98.7030   90.5150 C   0  0  0  0  0  0  0  0  0  0  0  0
   75.3560   99.4860   90.7150 C   0  0  0  0  0  0  0  0  0  0  0  0
   75.7670   99.7960   92.0090 C   0  0  0  0  0  0  0  0  0  0  0  0
   74.0410  101.4890   94.6410 O   0  0  0  0  0  0  0  0  0  0  0  0
   77.2130  101.0610   96.4270 C   0  0  0  0  0  0  0  0  0  0  0  0
   78.4580  101.4490   95.5970 C   0  0  0  0  0  0  0  0  0  0  0  0
   77.5880  101.2910   97.8990 C   0  0  0  0  0  0  0  0  0  0  0  0
   77.1570  102.4510   98.5600 C   0  0  0  0  0  0  0  0  0  0  0  0
   77.5020  102.6540   99.8990 C   0  0  0  0  0  0  0  0  0  0  0  0
   77.0450  103.9040  100.6410 C   0  0  0  0  0  0  0  0  0  0  0  0
   78.2010  104.9260  100.6960 C   0  0  0  0  0  0  0  0  0  0  0  0
   77.7720  106.3090  101.2530 C   0  0  0  0  0  0  0  0  0  0  0  0
   76.6590  106.2170  102.3170 C   0  0  0  0  0  0  0  0  0  0  0  0
   78.9150  106.9160  101.8590 O   0  0  0  0  0  0  0  0  0  0  0  0
   77.2760  107.1840  100.0980 C   0  0  0  0  0  0  0  0  0  0  0  0
   78.2790  101.7090  100.5700 C   0  0  0  0  0  0  0  0  0  0  0  0
   78.7110  100.5580   99.9150 C   0  0  0  0  0  0  0  0  0  0  0  0
   78.3680  100.3480   98.5810 C   0  0  0  0  0  0  0  0  0  0  0  0
   76.3040  103.4720   97.7990 C   0  0  0  0  0  0  0  0  0  0  0  0
  3  4  1  0  0  0  0
  4  5  1  0  0  0  0
  5  6  1  0  0  0  0
  6  7  1  0  0  0  0
  7  8  1  0  0  0  0
  8  9  1  0  0  0  0
  2 10  1  0  0  0  0
  9 10  2  0  0  0  0
 10 11  1  0  0  0  0
 11 12  2  0  0  0  0
 12 13  1  0  0  0  0
  1 14  1  0  0  0  0
  9 14  1  0  0  0  0
 13 14  2  0  0  0  0
  7 15  2  0  0  0  0
  6 16  1  0  0  0  0
 16 17  1  0  0  0  0
 16 18  1  0  0  0  0
 18 19  2  0  0  0  0
 19 20  1  0  0  0  0
 20 21  1  0  0  0  0
 21 22  1  0  0  0  0
 22 23  1  0  0  0  0
 23 24  1  0  0  0  0
 23 25  1  0  0  0  0
 23 26  1  0  0  0  0
 20 27  2  0  0  0  0
 27 28  1  0  0  0  0
 18 29  1  0  0  0  0
 28 29  2  0  0  0  0
  5 30  1  0  0  0  0
 19 30  1  0  0  0  0
M  END
$$$$
