6X2J
  PyMOL3.1          3D                             0

180188  0  0  0  0  0  0  0  0999 V2000
  176.6670  144.0210  185.0590 C   0  0  0  0  0  0  0  0  0  0  0  0
  177.4290  144.2910  186.2340 O   0  0  0  0  0  0  0  0  0  0  0  0
  178.3520  145.3070  186.2090 C   0  0  0  0  0  0  0  0  0  0  0  0
  178.6160  146.1340  185.1220 C   0  0  0  0  0  0  0  0  0  0  0  0
  179.5670  147.1310  185.2290 C   0  0  0  0  0  0  0  0  0  0  0  0
  180.2310  147.3280  186.4300 C   0  0  0  0  0  0  0  0  0  0  0  0
  179.9620  146.5080  187.5230 C   0  0  0  0  0  0  0  0  0  0  0  0
  179.0300  145.4830  187.4030 C   0  0  0  0  0  0  0  0  0  0  0  0
  180.5980  146.8260  188.7410 N   0  0  0  0  0  0  0  0  0  0  0  0
  179.9700  147.3220  189.8300 C   0  0  0  0  0  0  0  0  0  0  0  0
  178.7690  147.5110  189.8800 O   0  0  0  0  0  0  0  0  0  0  0  0
  180.8390  147.6900  190.9550 C   0  0  0  0  0  0  0  0  0  0  0  0
  180.4340  148.1530  192.1850 C   0  0  0  0  0  0  0  0  0  0  0  0
  181.5810  148.4470  192.8210 N   0  0  0  0  0  0  0  0  0  0  0  0
  182.6460  148.2030  192.0320 N   0  0  0  0  0  0  0  0  0  0  0  0
  182.1930  147.7470  190.8920 N   0  0  0  0  0  0  0  0  0  0  0  0
  181.8030  148.9590  194.1700 C   0  0  0  0  0  0  0  0  0  0  0  0
  181.4780  147.9370  195.2290 C   0  0  0  0  0  0  0  0  0  0  0  0
  181.1190  146.6280  194.9360 C   0  0  0  0  0  0  0  0  0  0  0  0
  180.7500  145.7540  195.9400 C   0  0  0  0  0  0  0  0  0  0  0  0
  180.6860  146.2030  197.2240 C   0  0  0  0  0  0  0  0  0  0  0  0
  181.0600  147.4760  197.5660 C   0  0  0  0  0  0  0  0  0  0  0  0
  181.4600  148.3010  196.5540 C   0  0  0  0  0  0  0  0  0  0  0  0
  179.2260  148.3530  192.6940 N   0  0  0  0  0  0  0  0  0  0  0  0
  181.1550  148.3070  186.6790 O   0  0  0  0  0  0  0  0  0  0  0  0
  181.2670  149.3960  185.7600 C   0  0  0  0  0  0  0  0  0  0  0  0
  179.9790  145.0650  198.5560 Br  0  0  0  0  0  0  0  0  0  0  0  0
  181.9110  149.5230  196.8690 F   0  0  0  0  0  0  0  0  0  0  0  0
  176.0050  144.8800  184.9600 H   0  0  0  0  0  0  0  0  0  0  0  0
  177.2600  143.8460  184.1640 H   0  0  0  0  0  0  0  0  0  0  0  0
  176.0250  143.1550  185.2030 H   0  0  0  0  0  0  0  0  0  0  0  0
  178.1360  146.1350  184.1450 H   0  0  0  0  0  0  0  0  0  0  0  0
  179.7490  147.6920  184.3140 H   0  0  0  0  0  0  0  0  0  0  0  0
  178.8250  144.8090  188.2330 H   0  0  0  0  0  0  0  0  0  0  0  0
  181.5990  146.6630  188.7790 H   0  0  0  0  0  0  0  0  0  0  0  0
  182.8440  149.2680  194.2510 H   0  0  0  0  0  0  0  0  0  0  0  0
  181.2540  149.8790  194.3490 H   0  0  0  0  0  0  0  0  0  0  0  0
  181.1160  146.2690  193.9090 H   0  0  0  0  0  0  0  0  0  0  0  0
  180.5990  144.6940  195.7630 H   0  0  0  0  0  0  0  0  0  0  0  0
  181.0500  147.8100  198.6000 H   0  0  0  0  0  0  0  0  0  0  0  0
  178.4270  148.1940  192.0920 H   0  0  0  0  0  0  0  0  0  0  0  0
  179.0550  148.2640  193.6910 H   0  0  0  0  0  0  0  0  0  0  0  0
  182.0040  150.0200  186.2630 H   0  0  0  0  0  0  0  0  0  0  0  0
  181.7210  149.1400  184.8030 H   0  0  0  0  0  0  0  0  0  0  0  0
  180.3560  149.9770  185.6240 H   0  0  0  0  0  0  0  0  0  0  0  0
  144.0820  147.4360  185.0710 C   0  0  0  0  0  0  0  0  0  0  0  0
  144.2160  146.5400  186.1760 O   0  0  0  0  0  0  0  0  0  0  0  0
  145.1820  145.5660  186.1330 C   0  0  0  0  0  0  0  0  0  0  0  0
  146.0450  145.3270  185.0680 C   0  0  0  0  0  0  0  0  0  0  0  0
  147.0270  144.3610  185.1790 C   0  0  0  0  0  0  0  0  0  0  0  0
  147.1790  143.6620  186.3680 C   0  0  0  0  0  0  0  0  0  0  0  0
  146.3250  143.9060  187.4370 C   0  0  0  0  0  0  0  0  0  0  0  0
  145.3070  144.8440  187.3080 C   0  0  0  0  0  0  0  0  0  0  0  0
  146.6180  143.2570  188.6550 N   0  0  0  0  0  0  0  0  0  0  0  0
  147.0940  143.8840  189.7540 C   0  0  0  0  0  0  0  0  0  0  0  0
  147.2180  145.0920  189.8280 O   0  0  0  0  0  0  0  0  0  0  0  0
  147.5380  143.0070  190.8480 C   0  0  0  0  0  0  0  0  0  0  0  0
  147.9930  143.4030  192.0840 C   0  0  0  0  0  0  0  0  0  0  0  0
  148.2370  142.2510  192.7310 N   0  0  0  0  0  0  0  0  0  0  0  0
  147.9590  141.1900  191.9470 N   0  0  0  0  0  0  0  0  0  0  0  0
  147.5360  141.6520  190.7980 N   0  0  0  0  0  0  0  0  0  0  0  0
  148.7550  142.0190  194.0770 C   0  0  0  0  0  0  0  0  0  0  0  0
  147.7740  142.3780  195.1640 C   0  0  0  0  0  0  0  0  0  0  0  0
  146.4590  142.7420  194.9080 C   0  0  0  0  0  0  0  0  0  0  0  0
  145.6180  143.1320  195.9280 C   0  0  0  0  0  0  0  0  0  0  0  0
  146.1050  143.2150  197.1970 C   0  0  0  0  0  0  0  0  0  0  0  0
  147.3870  142.8400  197.5070 C   0  0  0  0  0  0  0  0  0  0  0  0
  148.1800  142.4190  196.4770 C   0  0  0  0  0  0  0  0  0  0  0  0
  148.2160  144.6090  192.5920 N   0  0  0  0  0  0  0  0  0  0  0  0
  148.1460  142.7260  186.6250 O   0  0  0  0  0  0  0  0  0  0  0  0
  149.2230  142.5740  185.6970 C   0  0  0  0  0  0  0  0  0  0  0  0
  145.0140  143.9690  198.5450 Br  0  0  0  0  0  0  0  0  0  0  0  0
  149.4180  141.9870  196.7590 F   0  0  0  0  0  0  0  0  0  0  0  0
  144.9840  148.0460  185.1160 H   0  0  0  0  0  0  0  0  0  0  0  0
  143.9430  146.9830  184.0930 H   0  0  0  0  0  0  0  0  0  0  0  0
  143.2440  148.1120  185.2320 H   0  0  0  0  0  0  0  0  0  0  0  0
  146.0820  145.8330  184.1050 H   0  0  0  0  0  0  0  0  0  0  0  0
  147.6080  144.1900  184.2750 H   0  0  0  0  0  0  0  0  0  0  0  0
  144.6020  145.0170  188.1180 H   0  0  0  0  0  0  0  0  0  0  0  0
  146.4520  142.2560  188.6840 H   0  0  0  0  0  0  0  0  0  0  0  0
  149.0290  140.9680  194.1560 H   0  0  0  0  0  0  0  0  0  0  0  0
  149.7000  142.5320  194.2300 H   0  0  0  0  0  0  0  0  0  0  0  0
  146.0710  142.7350  193.8920 H   0  0  0  0  0  0  0  0  0  0  0  0
  144.5540  143.2880  195.7790 H   0  0  0  0  0  0  0  0  0  0  0  0
  147.7530  142.8620  198.5300 H   0  0  0  0  0  0  0  0  0  0  0  0
  148.0840  145.4070  191.9810 H   0  0  0  0  0  0  0  0  0  0  0  0
  148.0750  144.7840  193.5820 H   0  0  0  0  0  0  0  0  0  0  0  0
  149.8280  141.8230  186.2030 H   0  0  0  0  0  0  0  0  0  0  0  0
  148.9420  142.1250  184.7460 H   0  0  0  0  0  0  0  0  0  0  0  0
  149.8370  143.4610  185.5520 H   0  0  0  0  0  0  0  0  0  0  0  0
  147.3010  179.5840  184.8620 C   0  0  0  0  0  0  0  0  0  0  0  0
  146.3590  179.5190  185.9360 O   0  0  0  0  0  0  0  0  0  0  0  0
  145.3700  178.5680  185.8990 C   0  0  0  0  0  0  0  0  0  0  0  0
  145.1460  177.6730  184.8590 C   0  0  0  0  0  0  0  0  0  0  0  0
  144.1930  176.6800  184.9950 C   0  0  0  0  0  0  0  0  0  0  0  0
  143.4950  176.5490  186.1870 C   0  0  0  0  0  0  0  0  0  0  0  0
  143.7230  177.4370  187.2320 C   0  0  0  0  0  0  0  0  0  0  0  0
  144.6400  178.4700  187.0730 C   0  0  0  0  0  0  0  0  0  0  0  0
  143.1060  177.1470  188.4690 N   0  0  0  0  0  0  0  0  0  0  0  0
  143.7920  176.7270  189.5560 C   0  0  0  0  0  0  0  0  0  0  0  0
  145.0100  176.7020  189.5890 O   0  0  0  0  0  0  0  0  0  0  0  0
  142.9860  176.2440  190.6890 C   0  0  0  0  0  0  0  0  0  0  0  0
  143.4580  175.8090  191.9060 C   0  0  0  0  0  0  0  0  0  0  0  0
  142.3480  175.4920  192.5940 N   0  0  0  0  0  0  0  0  0  0  0  0
  141.2440  175.7040  191.8530 N   0  0  0  0  0  0  0  0  0  0  0  0
  141.6340  176.1600  190.6900 N   0  0  0  0  0  0  0  0  0  0  0  0
  142.2010  174.9870  193.9570 C   0  0  0  0  0  0  0  0  0  0  0  0
  142.4510  176.0440  195.0030 C   0  0  0  0  0  0  0  0  0  0  0  0
  142.7640  177.3620  194.6980 C   0  0  0  0  0  0  0  0  0  0  0  0
  143.0840  178.2650  195.6900 C   0  0  0  0  0  0  0  0  0  0  0  0
  143.1430  177.8390  196.9820 C   0  0  0  0  0  0  0  0  0  0  0  0
  142.7880  176.5650  197.3410 C   0  0  0  0  0  0  0  0  0  0  0  0
  142.4380  175.7090  196.3360 C   0  0  0  0  0  0  0  0  0  0  0  0
  144.6940  175.6220  192.3570 N   0  0  0  0  0  0  0  0  0  0  0  0
  142.5800  175.5710  186.4710 O   0  0  0  0  0  0  0  0  0  0  0  0
  142.4470  174.4720  185.5670 C   0  0  0  0  0  0  0  0  0  0  0  0
  143.8830  178.9880  198.2890 Br  0  0  0  0  0  0  0  0  0  0  0  0
  142.0500  174.4620  196.6650 F   0  0  0  0  0  0  0  0  0  0  0  0
  147.8860  178.6720  184.9730 H   0  0  0  0  0  0  0  0  0  0  0  0
  146.8970  179.6870  183.8580 H   0  0  0  0  0  0  0  0  0  0  0  0
  147.9900  180.4120  185.0150 H   0  0  0  0  0  0  0  0  0  0  0  0
  145.6470  177.6190  183.8950 H   0  0  0  0  0  0  0  0  0  0  0  0
  144.0300  176.0780  184.1040 H   0  0  0  0  0  0  0  0  0  0  0  0
  144.7920  179.2120  187.8550 H   0  0  0  0  0  0  0  0  0  0  0  0
  142.0990  177.2660  188.5200 H   0  0  0  0  0  0  0  0  0  0  0  0
  141.2100  174.5490  194.0660 H   0  0  0  0  0  0  0  0  0  0  0  0
  142.8820  174.1510  194.1060 H   0  0  0  0  0  0  0  0  0  0  0  0
  142.7720  177.7040  193.6650 H   0  0  0  0  0  0  0  0  0  0  0  0
  143.2060  179.3270  195.4970 H   0  0  0  0  0  0  0  0  0  0  0  0
  142.7890  176.2510  198.3820 H   0  0  0  0  0  0  0  0  0  0  0  0
  145.4640  175.7570  191.7130 H   0  0  0  0  0  0  0  0  0  0  0  0
  144.9140  175.7020  193.3450 H   0  0  0  0  0  0  0  0  0  0  0  0
  141.7140  173.8590  186.0890 H   0  0  0  0  0  0  0  0  0  0  0  0
  141.9850  174.7230  184.6130 H   0  0  0  0  0  0  0  0  0  0  0  0
  143.3500  173.8790  185.4270 H   0  0  0  0  0  0  0  0  0  0  0  0
  179.9460  176.7780  184.9790 C   0  0  0  0  0  0  0  0  0  0  0  0
  179.6250  177.5280  186.1480 O   0  0  0  0  0  0  0  0  0  0  0  0
  178.5850  178.4210  186.0970 C   0  0  0  0  0  0  0  0  0  0  0  0
  177.7730  178.6570  184.9910 C   0  0  0  0  0  0  0  0  0  0  0  0
  176.7420  179.5740  185.0780 C   0  0  0  0  0  0  0  0  0  0  0  0
  176.5080  180.2350  186.2700 C   0  0  0  0  0  0  0  0  0  0  0  0
  177.3100  179.9990  187.3800 C   0  0  0  0  0  0  0  0  0  0  0  0
  178.3620  179.0960  187.2860 C   0  0  0  0  0  0  0  0  0  0  0  0
  176.9470  180.6310  188.5870 N   0  0  0  0  0  0  0  0  0  0  0  0
  176.4430  179.9840  189.6580 C   0  0  0  0  0  0  0  0  0  0  0  0
  176.2170  178.7880  189.6710 O   0  0  0  0  0  0  0  0  0  0  0  0
  176.1430  180.8150  190.8290 C   0  0  0  0  0  0  0  0  0  0  0  0
  175.6720  180.3720  192.0440 C   0  0  0  0  0  0  0  0  0  0  0  0
  175.3160  181.4950  192.6900 N   0  0  0  0  0  0  0  0  0  0  0  0
  175.5210  182.5800  191.9200 N   0  0  0  0  0  0  0  0  0  0  0  0
  176.0220  182.1660  190.7850 N   0  0  0  0  0  0  0  0  0  0  0  0
  174.8220  181.6720  194.0510 C   0  0  0  0  0  0  0  0  0  0  0  0
  175.9170  181.4530  195.0640 C   0  0  0  0  0  0  0  0  0  0  0  0
  177.2310  181.1540  194.7270 C   0  0  0  0  0  0  0  0  0  0  0  0
  178.1590  180.8390  195.6960 C   0  0  0  0  0  0  0  0  0  0  0  0
  177.7630  180.7710  196.9980 C   0  0  0  0  0  0  0  0  0  0  0  0
  176.4970  181.1160  197.3870 C   0  0  0  0  0  0  0  0  0  0  0  0
  175.6160  181.4630  196.4040 C   0  0  0  0  0  0  0  0  0  0  0  0
  175.4910  179.1460  192.5270 N   0  0  0  0  0  0  0  0  0  0  0  0
  175.5020  181.1370  186.4700 O   0  0  0  0  0  0  0  0  0  0  0  0
  174.1640  180.6560  186.3840 C   0  0  0  0  0  0  0  0  0  0  0  0
  178.9420  180.0310  198.2750 Br  0  0  0  0  0  0  0  0  0  0  0  0
  174.3790  181.8400  196.7620 F   0  0  0  0  0  0  0  0  0  0  0  0
  179.1080  176.0950  184.8490 H   0  0  0  0  0  0  0  0  0  0  0  0
  180.1410  177.3840  184.0970 H   0  0  0  0  0  0  0  0  0  0  0  0
  180.8210  176.1540  185.1530 H   0  0  0  0  0  0  0  0  0  0  0  0
  177.8160  178.1830  184.0130 H   0  0  0  0  0  0  0  0  0  0  0  0
  176.1410  179.7640  184.1900 H   0  0  0  0  0  0  0  0  0  0  0  0
  179.0210  178.8980  188.1300 H   0  0  0  0  0  0  0  0  0  0  0  0
  177.0830  181.6360  188.6320 H   0  0  0  0  0  0  0  0  0  0  0  0
  174.3790  182.6620  194.1470 H   0  0  0  0  0  0  0  0  0  0  0  0
  173.9970  180.9850  194.2320 H   0  0  0  0  0  0  0  0  0  0  0  0
  177.5490  181.1510  193.6870 H   0  0  0  0  0  0  0  0  0  0  0  0
  179.2160  180.7310  195.4720 H   0  0  0  0  0  0  0  0  0  0  0  0
  176.2090  181.1270  198.4350 H   0  0  0  0  0  0  0  0  0  0  0  0
  175.6620  178.3560  191.9170 H   0  0  0  0  0  0  0  0  0  0  0  0
  175.5490  178.9600  193.5230 H   0  0  0  0  0  0  0  0  0  0  0  0
  173.6420  181.2450  187.1360 H   0  0  0  0  0  0  0  0  0  0  0  0
  173.7110  180.8340  185.4100 H   0  0  0  0  0  0  0  0  0  0  0  0
  174.0680  179.6030  186.6460 H   0  0  0  0  0  0  0  0  0  0  0  0
  1  2  1  0  0  0  0
  2  3  1  0  0  0  0
  3  4  1  0  0  0  0
  4  5  2  0  0  0  0
  5  6  1  0  0  0  0
  6  7  2  0  0  0  0
  3  8  2  0  0  0  0
  7  8  1  0  0  0  0
  7  9  1  0  0  0  0
  9 10  1  0  0  0  0
 10 11  2  0  0  0  0
 10 12  1  0  0  0  0
 12 13  2  0  0  0  0
 13 14  1  0  0  0  0
 14 15  1  0  0  0  0
 12 16  1  0  0  0  0
 15 16  2  0  0  0  0
 14 17  1  0  0  0  0
 17 18  1  0  0  0  0
 18 19  2  0  0  0  0
 19 20  1  0  0  0  0
 20 21  2  0  0  0  0
 21 22  1  0  0  0  0
 18 23  1  0  0  0  0
 22 23  2  0  0  0  0
 13 24  1  0  0  0  0
  6 25  1  0  0  0  0
 25 26  1  0  0  0  0
 21 27  1  0  0  0  0
 23 28  1  0  0  0  0
  1 29  1  0  0  0  0
  1 30  1  0  0  0  0
  1 31  1  0  0  0  0
  4 32  1  0  0  0  0
  5 33  1  0  0  0  0
  8 34  1  0  0  0  0
  9 35  1  0  0  0  0
 17 36  1  0  0  0  0
 17 37  1  0  0  0  0
 19 38  1  0  0  0  0
 20 39  1  0  0  0  0
 22 40  1  0  0  0  0
 24 41  1  0  0  0  0
 24 42  1  0  0  0  0
 26 43  1  0  0  0  0
 26 44  1  0  0  0  0
 26 45  1  0  0  0  0
 46 47  1  0  0  0  0
 47 48  1  0  0  0  0
 48 49  1  0  0  0  0
 49 50  2  0  0  0  0
 50 51  1  0  0  0  0
 51 52  2  0  0  0  0
 48 53  2  0  0  0  0
 52 53  1  0  0  0  0
 52 54  1  0  0  0  0
 54 55  1  0  0  0  0
 55 56  2  0  0  0  0
 55 57  1  0  0  0  0
 57 58  2  0  0  0  0
 58 59  1  0  0  0  0
 59 60  1  0  0  0  0
 57 61  1  0  0  0  0
 60 61  2  0  0  0  0
 59 62  1  0  0  0  0
 62 63  1  0  0  0  0
 63 64  2  0  0  0  0
 64 65  1  0  0  0  0
 65 66  2  0  0  0  0
 66 67  1  0  0  0  0
 63 68  1  0  0  0  0
 67 68  2  0  0  0  0
 58 69  1  0  0  0  0
 51 70  1  0  0  0  0
 70 71  1  0  0  0  0
 66 72  1  0  0  0  0
 68 73  1  0  0  0  0
 46 74  1  0  0  0  0
 46 75  1  0  0  0  0
 46 76  1  0  0  0  0
 49 77  1  0  0  0  0
 50 78  1  0  0  0  0
 53 79  1  0  0  0  0
 54 80  1  0  0  0  0
 62 81  1  0  0  0  0
 62 82  1  0  0  0  0
 64 83  1  0  0  0  0
 65 84  1  0  0  0  0
 67 85  1  0  0  0  0
 69 86  1  0  0  0  0
 69 87  1  0  0  0  0
 71 88  1  0  0  0  0
 71 89  1  0  0  0  0
 71 90  1  0  0  0  0
 91 92  1  0  0  0  0
 92 93  1  0  0  0  0
 93 94  1  0  0  0  0
 94 95  2  0  0  0  0
 95 96  1  0  0  0  0
 96 97  2  0  0  0  0
 93 98  2  0  0  0  0
 97 98  1  0  0  0  0
 97 99  1  0  0  0  0
 99100  1  0  0  0  0
100101  2  0  0  0  0
100102  1  0  0  0  0
102103  2  0  0  0  0
103104  1  0  0  0  0
104105  1  0  0  0  0
102106  1  0  0  0  0
105106  2  0  0  0  0
104107  1  0  0  0  0
107108  1  0  0  0  0
108109  2  0  0  0  0
109110  1  0  0  0  0
110111  2  0  0  0  0
111112  1  0  0  0  0
108113  1  0  0  0  0
112113  2  0  0  0  0
103114  1  0  0  0  0
 96115  1  0  0  0  0
115116  1  0  0  0  0
111117  1  0  0  0  0
113118  1  0  0  0  0
 91119  1  0  0  0  0
 91120  1  0  0  0  0
 91121  1  0  0  0  0
 94122  1  0  0  0  0
 95123  1  0  0  0  0
 98124  1  0  0  0  0
 99125  1  0  0  0  0
107126  1  0  0  0  0
107127  1  0  0  0  0
109128  1  0  0  0  0
110129  1  0  0  0  0
112130  1  0  0  0  0
114131  1  0  0  0  0
114132  1  0  0  0  0
116133  1  0  0  0  0
116134  1  0  0  0  0
116135  1  0  0  0  0
136137  1  0  0  0  0
137138  1  0  0  0  0
138139  1  0  0  0  0
139140  2  0  0  0  0
140141  1  0  0  0  0
141142  2  0  0  0  0
138143  2  0  0  0  0
142143  1  0  0  0  0
142144  1  0  0  0  0
144145  1  0  0  0  0
145146  2  0  0  0  0
145147  1  0  0  0  0
147148  2  0  0  0  0
148149  1  0  0  0  0
149150  1  0  0  0  0
147151  1  0  0  0  0
150151  2  0  0  0  0
149152  1  0  0  0  0
152153  1  0  0  0  0
153154  2  0  0  0  0
154155  1  0  0  0  0
155156  2  0  0  0  0
156157  1  0  0  0  0
153158  1  0  0  0  0
157158  2  0  0  0  0
148159  1  0  0  0  0
141160  1  0  0  0  0
160161  1  0  0  0  0
156162  1  0  0  0  0
158163  1  0  0  0  0
136164  1  0  0  0  0
136165  1  0  0  0  0
136166  1  0  0  0  0
139167  1  0  0  0  0
140168  1  0  0  0  0
143169  1  0  0  0  0
144170  1  0  0  0  0
152171  1  0  0  0  0
152172  1  0  0  0  0
154173  1  0  0  0  0
155174  1  0  0  0  0
157175  1  0  0  0  0
159176  1  0  0  0  0
159177  1  0  0  0  0
161178  1  0  0  0  0
161179  1  0  0  0  0
161180  1  0  0  0  0
M  END
$$$$
