7DDZ
  PyMOL3.1          3D                             0

 42 46  0  0  0  0  0  0  0  0999 V2000
  -24.8140   11.6300   43.9270 C   0  0  0  0  0  0  0  0  0  0  0  0
  -24.9810   11.8390   45.3150 C   0  0  0  0  0  0  0  0  0  0  0  0
  -25.5390   13.0160   45.7570 C   0  0  0  0  0  0  0  0  0  0  0  0
  -25.9310   14.0270   44.8020 C   0  0  0  0  0  0  0  0  0  0  0  0
  -25.7910   13.7940   43.4160 C   0  0  0  0  0  0  0  0  0  0  0  0
  -25.2190   12.5920   42.9720 C   0  0  0  0  0  0  0  0  0  0  0  0
  -24.5840   13.2660   48.0640 C   0  0  0  0  0  0  0  0  0  0  0  0
  -24.7210   13.6580   49.4050 C   0  0  0  0  0  0  0  0  0  0  0  0
  -25.9790   14.0400   49.9810 C   0  0  0  0  0  0  0  0  0  0  0  0
  -27.0820   14.1100   49.1280 N   0  0  0  0  0  0  0  0  0  0  0  0
  -26.9570   13.7890   47.7590 C   0  0  0  0  0  0  0  0  0  0  0  0
  -25.7020   13.3090   47.2590 C   0  0  0  0  0  0  0  0  0  0  0  0
  -24.5140   10.7880   46.3680 C   0  0  0  0  0  0  0  0  0  0  0  0
  -23.0700   10.8480   46.8090 N   0  0  0  0  0  0  0  0  0  0  0  0
  -25.2950    9.9100   46.7750 O   0  0  0  0  0  0  0  0  0  0  0  0
  -22.7730    9.7350   47.8240 C   0  0  0  0  0  0  0  0  0  0  0  0
  -22.9940    8.3640   47.5290 C   0  0  0  0  0  0  0  0  0  0  0  0
  -22.7110    7.3940   48.5390 C   0  0  0  0  0  0  0  0  0  0  0  0
  -22.3100    7.8240   49.7860 C   0  0  0  0  0  0  0  0  0  0  0  0
  -22.0880    9.1650   50.1460 C   0  0  0  0  0  0  0  0  0  0  0  0
  -22.3370   10.1550   49.1250 C   0  0  0  0  0  0  0  0  0  0  0  0
  -22.1050    6.6820   50.6350 N   0  0  0  0  0  0  0  0  0  0  0  0
  -23.3010    6.0370   51.1380 C   0  0  0  0  0  0  0  0  0  0  0  0
  -22.7590    4.7440   51.7950 C   0  0  0  0  0  0  0  0  0  0  0  0
  -21.7700    4.9610   52.6820 N   0  0  0  0  0  0  0  0  0  0  0  0
  -20.6360    5.4510   52.1450 C   0  0  0  0  0  0  0  0  0  0  0  0
  -20.8510    6.7770   51.3580 C   0  0  0  0  0  0  0  0  0  0  0  0
  -21.5290    3.6290   53.1140 C   0  0  0  0  0  0  0  0  0  0  0  0
  -22.6770    3.4780   54.1500 C   0  0  0  0  0  0  0  0  0  0  0  0
  -23.2060    2.1680   54.4770 N   0  0  0  0  0  0  0  0  0  0  0  0
  -23.0790    4.5040   54.7700 O   0  0  0  0  0  0  0  0  0  0  0  0
  -24.3520    2.0430   55.4370 C   0  0  0  0  0  0  0  0  0  0  0  0
  -25.3740    1.0210   54.7600 C   0  0  0  0  0  0  0  0  0  0  0  0
  -22.7210    0.9940   53.7170 C   0  0  0  0  0  0  0  0  0  0  0  0
  -23.4750    1.1390   52.3530 C   0  0  0  0  0  0  0  0  0  0  0  0
  -20.3740    3.4410   54.1590 C   0  0  0  0  0  0  0  0  0  0  0  0
  -20.0570    4.4220   55.1490 C   0  0  0  0  0  0  0  0  0  0  0  0
  -18.9380    4.1620   56.0520 C   0  0  0  0  0  0  0  0  0  0  0  0
  -18.1680    2.9570   56.0020 C   0  0  0  0  0  0  0  0  0  0  0  0
  -18.5170    2.0090   54.9840 C   0  0  0  0  0  0  0  0  0  0  0  0
  -19.6420    2.2380   54.1050 C   0  0  0  0  0  0  0  0  0  0  0  0
  -22.8550    5.9130   48.4340 F   0  0  0  0  0  0  0  0  0  0  0  0
  1  2  2  0  0  0  0
  2  3  1  0  0  0  0
  3  4  2  0  0  0  0
  4  5  1  0  0  0  0
  1  6  1  0  0  0  0
  5  6  2  0  0  0  0
  7  8  2  0  0  0  0
  8  9  1  0  0  0  0
  9 10  2  0  0  0  0
 10 11  1  0  0  0  0
  3 12  1  0  0  0  0
  7 12  1  0  0  0  0
 11 12  2  0  0  0  0
  2 13  1  0  0  0  0
 13 14  1  0  0  0  0
 13 15  2  0  0  0  0
 14 16  1  0  0  0  0
 16 17  2  0  0  0  0
 17 18  1  0  0  0  0
 18 19  2  0  0  0  0
 19 20  1  0  0  0  0
 16 21  1  0  0  0  0
 20 21  2  0  0  0  0
 19 22  1  0  0  0  0
 22 23  1  0  0  0  0
 23 24  1  0  0  0  0
 24 25  1  0  0  0  0
 25 26  1  0  0  0  0
 22 27  1  0  0  0  0
 26 27  1  0  0  0  0
 25 28  1  0  0  0  0
 28 29  1  0  0  0  0
 29 30  1  0  0  0  0
 29 31  2  0  0  0  0
 30 32  1  0  0  0  0
 32 33  1  0  0  0  0
 30 34  1  0  0  0  0
 34 35  1  0  0  0  0
 28 36  1  0  0  0  0
 36 37  1  0  0  0  0
 37 38  2  0  0  0  0
 38 39  1  0  0  0  0
 39 40  2  0  0  0  0
 36 41  2  0  0  0  0
 40 41  1  0  0  0  0
 18 42  1  0  0  0  0
M  END
$$$$
