7LW1
  PyMOL3.1          3D                             0

 53 56  0  0  0  0  0  0  0  0999 V2000
  185.9170  143.9450  167.3840 O   0  0  0  0  0  0  0  0  0  0  0  0
  187.0760  144.6920  167.6790 C   0  0  0  0  0  0  0  0  0  0  0  0
  187.2310  144.9850  169.1660 C   0  0  0  0  0  0  0  0  0  0  0  0
  186.0570  144.5980  170.0930 C   0  0  0  0  0  0  0  0  0  0  0  0
  186.3870  143.9390  171.3730 C   0  0  0  0  0  0  0  0  0  0  0  0
  186.6530  143.4060  172.4090 C   0  0  0  0  0  0  0  0  0  0  0  0
  186.4660  142.7540  175.9410 C   0  0  0  0  0  0  0  0  0  0  0  0
  186.2240  143.3050  174.6870 C   0  0  0  0  0  0  0  0  0  0  0  0
  186.9600  142.7910  173.6410 C   0  0  0  0  0  0  0  0  0  0  0  0
  187.8950  141.7720  173.8020 C   0  0  0  0  0  0  0  0  0  0  0  0
  188.1440  141.2290  175.0670 C   0  0  0  0  0  0  0  0  0  0  0  0
  187.3980  141.7400  176.1440 C   0  0  0  0  0  0  0  0  0  0  0  0
  190.7220  141.9920  168.3930 C   0  0  0  0  0  0  0  0  0  0  0  0
  191.7570  141.1850  168.6720 C   0  0  0  0  0  0  0  0  0  0  0  0
  193.0750  141.2420  168.2310 C   0  0  0  0  0  0  0  0  0  0  0  0
  193.2300  142.3300  167.4110 C   0  0  0  0  0  0  0  0  0  0  0  0
  192.2000  143.2300  167.0710 C   0  0  0  0  0  0  0  0  0  0  0  0
  190.9510  143.0930  167.5590 C   0  0  0  0  0  0  0  0  0  0  0  0
  194.4420  142.6310  166.7940 N   0  0  0  0  0  0  0  0  0  0  0  0
  195.3760  141.7220  166.3700 C   0  0  0  0  0  0  0  0  0  0  0  0
  195.1290  140.5550  166.6110 O   0  0  0  0  0  0  0  0  0  0  0  0
  196.5770  142.2310  165.6740 C   0  0  0  0  0  0  0  0  0  0  0  0
  189.5060  141.5790  169.1120 C   0  0  0  0  0  0  0  0  0  0  0  0
  189.2930  141.2960  170.5040 N   0  0  0  0  0  0  0  0  0  0  0  0
  189.9680  140.3880  171.1570 C   0  0  0  0  0  0  0  0  0  0  0  0
  190.9640  139.5810  170.5220 C   0  0  0  0  0  0  0  0  0  0  0  0
  191.7340  140.0720  169.4730 O   0  0  0  0  0  0  0  0  0  0  0  0
  188.3980  142.0200  171.3000 N   0  0  0  0  0  0  0  0  0  0  0  0
  188.5570  141.4320  172.4970 C   0  0  0  0  0  0  0  0  0  0  0  0
  189.5470  140.4390  172.4530 C   0  0  0  0  0  0  0  0  0  0  0  0
  186.1510  143.0200  167.5180 H   0  0  0  0  0  0  0  0  0  0  0  0
  187.1130  145.7280  167.2960 H   0  0  0  0  0  0  0  0  0  0  0  0
  187.9340  144.0680  167.4190 H   0  0  0  0  0  0  0  0  0  0  0  0
  187.0850  146.0310  169.3190 H   0  0  0  0  0  0  0  0  0  0  0  0
  188.2820  144.7730  169.4220 H   0  0  0  0  0  0  0  0  0  0  0  0
  185.3830  143.8650  169.6620 H   0  0  0  0  0  0  0  0  0  0  0  0
  185.4570  145.5010  170.3300 H   0  0  0  0  0  0  0  0  0  0  0  0
  185.9510  143.0650  176.8540 H   0  0  0  0  0  0  0  0  0  0  0  0
  185.5680  144.0740  174.3030 H   0  0  0  0  0  0  0  0  0  0  0  0
  188.9210  140.4360  175.0250 H   0  0  0  0  0  0  0  0  0  0  0  0
  187.5780  141.3060  177.1600 H   0  0  0  0  0  0  0  0  0  0  0  0
  193.5660  140.3790  168.6910 H   0  0  0  0  0  0  0  0  0  0  0  0
  192.5320  144.0060  166.4110 H   0  0  0  0  0  0  0  0  0  0  0  0
  190.2170  143.8340  167.2510 H   0  0  0  0  0  0  0  0  0  0  0  0
  194.3430  143.6230  166.7220 H   0  0  0  0  0  0  0  0  0  0  0  0
  196.0410  143.0130  165.1620 H   0  0  0  0  0  0  0  0  0  0  0  0
  197.0580  141.4740  165.0320 H   0  0  0  0  0  0  0  0  0  0  0  0
  197.1940  142.6130  166.4630 H   0  0  0  0  0  0  0  0  0  0  0  0
  189.2290  140.7580  168.4870 H   0  0  0  0  0  0  0  0  0  0  0  0
  188.8040  142.4070  169.1140 H   0  0  0  0  0  0  0  0  0  0  0  0
  190.2140  138.8990  170.1190 H   0  0  0  0  0  0  0  0  0  0  0  0
  191.6230  139.3080  171.3680 H   0  0  0  0  0  0  0  0  0  0  0  0
  189.6230  140.0410  173.4180 H   0  0  0  0  0  0  0  0  0  0  0  0
  1  2  1  0  0  0  0
  2  3  1  0  0  0  0
  3  4  1  0  0  0  0
  4  5  1  0  0  0  0
  5  6  3  0  0  0  0
  7  8  2  0  0  0  0
  6  9  1  0  0  0  0
  8  9  1  0  0  0  0
  9 10  2  0  0  0  0
 10 11  1  0  0  0  0
  7 12  1  0  0  0  0
 11 12  2  0  0  0  0
 13 14  1  0  0  0  0
 14 15  2  0  0  0  0
 15 16  1  0  0  0  0
 16 17  2  0  0  0  0
 13 18  2  0  0  0  0
 17 18  1  0  0  0  0
 16 19  1  0  0  0  0
 19 20  1  0  0  0  0
 20 21  2  0  0  0  0
 20 22  1  0  0  0  0
 13 23  1  0  0  0  0
 23 24  1  0  0  0  0
 24 25  1  0  0  0  0
 25 26  1  0  0  0  0
 14 27  1  0  0  0  0
 26 27  1  0  0  0  0
 24 28  1  0  0  0  0
 10 29  1  0  0  0  0
 28 29  2  0  0  0  0
 25 30  2  0  0  0  0
 29 30  1  0  0  0  0
  1 31  1  0  0  0  0
  2 32  1  0  0  0  0
  2 33  1  0  0  0  0
  3 34  1  0  0  0  0
  3 35  1  0  0  0  0
  4 36  1  0  0  0  0
  4 37  1  0  0  0  0
  7 38  1  0  0  0  0
  8 39  1  0  0  0  0
 11 40  1  0  0  0  0
 12 41  1  0  0  0  0
 15 42  1  0  0  0  0
 17 43  1  0  0  0  0
 18 44  1  0  0  0  0
 19 45  1  0  0  0  0
 22 46  1  0  0  0  0
 22 47  1  0  0  0  0
 22 48  1  0  0  0  0
 23 49  1  0  0  0  0
 23 50  1  0  0  0  0
 26 51  1  0  0  0  0
 26 52  1  0  0  0  0
 30 53  1  0  0  0  0
M  END
$$$$
