6X3X
  PyMOL3.1          3D                             0

 80 88  0  0  0  0  0  0  0  0999 V2000
  144.7490  126.7060  118.8520 Cl  0  0  0  0  0  0  0  0  0  0  0  0
  145.0310  126.2120  126.1330 C   0  0  0  0  0  0  0  0  0  0  0  0
  147.4830  119.8920  122.8590 O   0  0  0  0  0  0  0  0  0  0  0  0
  143.5910  126.1850  125.9400 C   0  0  0  0  0  0  0  0  0  0  0  0
  145.9330  121.0960  121.5100 N   0  0  0  0  0  0  0  0  0  0  0  0
  143.0020  125.3230  124.9270 C   0  0  0  0  0  0  0  0  0  0  0  0
  143.8560  124.4890  124.1020 C   0  0  0  0  0  0  0  0  0  0  0  0
  146.0100  123.5050  123.2750 C   0  0  0  0  0  0  0  0  0  0  0  0
  145.6490  122.4770  120.8780 C   0  0  0  0  0  0  0  0  0  0  0  0
  145.3340  122.5930  119.4540 C   0  0  0  0  0  0  0  0  0  0  0  0
  145.0660  123.8720  118.8410 C   0  0  0  0  0  0  0  0  0  0  0  0
  145.0940  125.0640  119.6570 C   0  0  0  0  0  0  0  0  0  0  0  0
  145.8890  125.3750  125.3120 C   0  0  0  0  0  0  0  0  0  0  0  0
  145.2990  124.5180  124.3000 C   0  0  0  0  0  0  0  0  0  0  0  0
  145.6670  123.6810  121.7010 C   0  0  0  0  0  0  0  0  0  0  0  0
  145.3900  124.9730  121.0710 C   0  0  0  0  0  0  0  0  0  0  0  0
  147.4490  123.1490  123.5950 N   0  0  0  0  0  0  0  0  0  0  0  0
  148.1450  122.2340  122.6170 C   0  0  0  0  0  0  0  0  0  0  0  0
  147.1990  120.9840  122.3470 C   0  0  0  0  0  0  0  0  0  0  0  0
  145.0340  119.9020  121.2300 C   0  0  0  0  0  0  0  0  0  0  0  0
  128.7440  135.9330  137.7010 Cl  0  0  0  0  0  0  0  0  0  0  0  0
  128.3890  141.4160  131.9970 C   0  0  0  0  0  0  0  0  0  0  0  0
  123.5420  142.3550  137.0760 O   0  0  0  0  0  0  0  0  0  0  0  0
  128.0850  140.1830  131.2970 C   0  0  0  0  0  0  0  0  0  0  0  0
  124.0330  140.0430  136.9480 N   0  0  0  0  0  0  0  0  0  0  0  0
  127.2780  139.1510  131.9340 C   0  0  0  0  0  0  0  0  0  0  0  0
  126.7700  139.3490  133.2810 C   0  0  0  0  0  0  0  0  0  0  0  0
  126.4200  140.5860  135.4340 C   0  0  0  0  0  0  0  0  0  0  0  0
  125.1850  139.0400  137.1250 C   0  0  0  0  0  0  0  0  0  0  0  0
  125.0610  137.8880  138.0130 C   0  0  0  0  0  0  0  0  0  0  0  0
  126.1480  136.9520  138.1810 C   0  0  0  0  0  0  0  0  0  0  0  0
  127.3740  137.1720  137.4450 C   0  0  0  0  0  0  0  0  0  0  0  0
  127.8860  141.6160  133.3440 C   0  0  0  0  0  0  0  0  0  0  0  0
  127.0860  140.5850  133.9770 C   0  0  0  0  0  0  0  0  0  0  0  0
  126.4150  139.2570  136.3700 C   0  0  0  0  0  0  0  0  0  0  0  0
  127.5200  138.3080  136.5450 C   0  0  0  0  0  0  0  0  0  0  0  0
  126.5940  141.8820  136.1990 N   0  0  0  0  0  0  0  0  0  0  0  0
  125.8670  141.9450  137.5200 C   0  0  0  0  0  0  0  0  0  0  0  0
  124.3970  141.4860  137.1910 C   0  0  0  0  0  0  0  0  0  0  0  0
  122.6100  139.6250  136.6340 C   0  0  0  0  0  0  0  0  0  0  0  0
   92.4710  126.1350  109.2850 Cl  0  0  0  0  0  0  0  0  0  0  0  0
   86.7100  123.6180  107.7490 C   0  0  0  0  0  0  0  0  0  0  0  0
   89.1180  127.7360  101.7990 O   0  0  0  0  0  0  0  0  0  0  0  0
   86.7600  122.3100  107.1190 C   0  0  0  0  0  0  0  0  0  0  0  0
   89.6550  128.2780  104.0530 N   0  0  0  0  0  0  0  0  0  0  0  0
   87.4960  122.1150  105.8850 C   0  0  0  0  0  0  0  0  0  0  0  0
   88.1880  123.2330  105.2790 C   0  0  0  0  0  0  0  0  0  0  0  0
   88.9830  125.5450  105.0170 C   0  0  0  0  0  0  0  0  0  0  0  0
   90.3620  127.7730  105.3300 C   0  0  0  0  0  0  0  0  0  0  0  0
   91.3210  128.6050  106.0670 C   0  0  0  0  0  0  0  0  0  0  0  0
   91.9750  128.1200  107.2690 C   0  0  0  0  0  0  0  0  0  0  0  0
   91.6560  126.7900  107.7480 C   0  0  0  0  0  0  0  0  0  0  0  0
   87.4000  124.7410  107.1470 C   0  0  0  0  0  0  0  0  0  0  0  0
   88.1300  124.5370  105.9150 C   0  0  0  0  0  0  0  0  0  0  0  0
   90.0500  126.4400  105.8350 C   0  0  0  0  0  0  0  0  0  0  0  0
   90.7010  125.9600  107.0480 C   0  0  0  0  0  0  0  0  0  0  0  0
   89.4680  124.9800  103.7000 N   0  0  0  0  0  0  0  0  0  0  0  0
   90.3240  125.9030  102.8740 C   0  0  0  0  0  0  0  0  0  0  0  0
   89.6660  127.3540  102.8450 C   0  0  0  0  0  0  0  0  0  0  0  0
   89.0270  129.6610  103.9990 C   0  0  0  0  0  0  0  0  0  0  0  0
  132.4930  134.0320  106.9130 Cl  0  0  0  0  0  0  0  0  0  0  0  0
  139.0050  134.3290  105.3020 C   0  0  0  0  0  0  0  0  0  0  0  0
  138.3810  134.1790  112.9560 O   0  0  0  0  0  0  0  0  0  0  0  0
  139.8080  135.5400  105.2570 C   0  0  0  0  0  0  0  0  0  0  0  0
  136.7420  133.2520  111.5390 N   0  0  0  0  0  0  0  0  0  0  0  0
  139.8600  136.4220  106.4100 C   0  0  0  0  0  0  0  0  0  0  0  0
  139.1120  136.0890  107.6080 C   0  0  0  0  0  0  0  0  0  0  0  0
  137.6210  134.8040  109.0910 C   0  0  0  0  0  0  0  0  0  0  0  0
  135.7240  133.4730  110.3930 C   0  0  0  0  0  0  0  0  0  0  0  0
  134.3750  132.9060  110.4960 C   0  0  0  0  0  0  0  0  0  0  0  0
  133.3970  133.0880  109.4440 C   0  0  0  0  0  0  0  0  0  0  0  0
  133.7750  133.8260  108.2530 C   0  0  0  0  0  0  0  0  0  0  0  0
  138.2540  133.9900  106.5010 C   0  0  0  0  0  0  0  0  0  0  0  0
  138.3120  134.8750  107.6480 C   0  0  0  0  0  0  0  0  0  0  0  0
  136.1060  134.2110  109.1800 C   0  0  0  0  0  0  0  0  0  0  0  0
  135.1110  134.3840  108.1140 C   0  0  0  0  0  0  0  0  0  0  0  0
  137.9950  135.9570  109.9950 N   0  0  0  0  0  0  0  0  0  0  0  0
  137.5440  135.8940  111.4280 C   0  0  0  0  0  0  0  0  0  0  0  0
  137.5930  134.4170  112.0270 C   0  0  0  0  0  0  0  0  0  0  0  0
  136.8500  131.8920  112.2150 C   0  0  0  0  0  0  0  0  0  0  0  0
  2  4  2  0  0  0  0
  4  6  1  0  0  0  0
  6  7  2  0  0  0  0
  5  9  1  0  0  0  0
  9 10  2  0  0  0  0
 10 11  1  0  0  0  0
  1 12  1  0  0  0  0
 11 12  2  0  0  0  0
  2 13  1  0  0  0  0
  7 14  1  0  0  0  0
  8 14  1  0  0  0  0
 13 14  2  0  0  0  0
  8 15  1  0  0  0  0
  9 15  1  0  0  0  0
 12 16  1  0  0  0  0
 15 16  2  0  0  0  0
  8 17  2  0  0  0  0
 17 18  1  0  0  0  0
  3 19  2  0  0  0  0
  5 19  1  0  0  0  0
 18 19  1  0  0  0  0
  5 20  1  0  0  0  0
 22 24  2  0  0  0  0
 24 26  1  0  0  0  0
 26 27  2  0  0  0  0
 25 29  1  0  0  0  0
 29 30  2  0  0  0  0
 30 31  1  0  0  0  0
 21 32  1  0  0  0  0
 31 32  2  0  0  0  0
 22 33  1  0  0  0  0
 27 34  1  0  0  0  0
 28 34  1  0  0  0  0
 33 34  2  0  0  0  0
 28 35  1  0  0  0  0
 29 35  1  0  0  0  0
 32 36  1  0  0  0  0
 35 36  2  0  0  0  0
 28 37  2  0  0  0  0
 37 38  1  0  0  0  0
 23 39  2  0  0  0  0
 25 39  1  0  0  0  0
 38 39  1  0  0  0  0
 25 40  1  0  0  0  0
 42 44  2  0  0  0  0
 44 46  1  0  0  0  0
 46 47  2  0  0  0  0
 45 49  1  0  0  0  0
 49 50  2  0  0  0  0
 50 51  1  0  0  0  0
 41 52  1  0  0  0  0
 51 52  2  0  0  0  0
 42 53  1  0  0  0  0
 47 54  1  0  0  0  0
 48 54  1  0  0  0  0
 53 54  2  0  0  0  0
 48 55  1  0  0  0  0
 49 55  1  0  0  0  0
 52 56  1  0  0  0  0
 55 56  2  0  0  0  0
 48 57  2  0  0  0  0
 57 58  1  0  0  0  0
 43 59  2  0  0  0  0
 45 59  1  0  0  0  0
 58 59  1  0  0  0  0
 45 60  1  0  0  0  0
 62 64  2  0  0  0  0
 64 66  1  0  0  0  0
 66 67  2  0  0  0  0
 65 69  1  0  0  0  0
 69 70  2  0  0  0  0
 70 71  1  0  0  0  0
 61 72  1  0  0  0  0
 71 72  2  0  0  0  0
 62 73  1  0  0  0  0
 67 74  1  0  0  0  0
 68 74  1  0  0  0  0
 73 74  2  0  0  0  0
 68 75  1  0  0  0  0
 69 75  1  0  0  0  0
 72 76  1  0  0  0  0
 75 76  2  0  0  0  0
 68 77  2  0  0  0  0
 77 78  1  0  0  0  0
 63 79  2  0  0  0  0
 65 79  1  0  0  0  0
 78 79  1  0  0  0  0
 65 80  1  0  0  0  0
M  END
$$$$
