8XFD
  PyMOL3.1          3D                             0

 32 36  0  0  0  0  0  0  0  0999 V2000
    8.1635   12.7042   28.2541 N   0  0  0  0  0  0  0  0  0  0  0  0
    7.9017   10.3842   27.6385 C   0  0  0  0  0  0  0  0  0  0  0  0
    5.7413    9.4515   26.5394 O   0  0  0  0  0  0  0  0  0  0  0  0
    8.4256    9.1251   27.4883 C   0  0  0  0  0  0  0  0  0  0  0  0
    6.3235   11.8524   26.0724 N   0  0  0  0  0  0  0  0  0  0  0  0
    6.8305   10.8796   19.7831 O   0  0  0  0  0  0  0  0  0  0  0  0
    9.7619    8.8796   27.7459 C   0  0  0  0  0  0  0  0  0  0  0  0
    8.8982   11.7297   20.1084 N   0  0  0  0  0  0  0  0  0  0  0  0
    5.4956   11.1976   28.2741 O   0  0  0  0  0  0  0  0  0  0  0  0
   10.5867    9.8847   28.1574 C   0  0  0  0  0  0  0  0  0  0  0  0
   11.7410   11.6041   19.3816 N   0  0  0  0  0  0  0  0  0  0  0  0
   10.0923   11.2054   28.3367 C   0  0  0  0  0  0  0  0  0  0  0  0
    8.7367   11.4651   28.0794 C   0  0  0  0  0  0  0  0  0  0  0  0
    8.9613   13.6722   28.6888 C   0  0  0  0  0  0  0  0  0  0  0  0
   10.3188   13.5142   28.9636 C   0  0  0  0  0  0  0  0  0  0  0  0
   10.8829   12.2880   28.7874 C   0  0  0  0  0  0  0  0  0  0  0  0
    6.5757   11.7529   24.6738 C   0  0  0  0  0  0  0  0  0  0  0  0
    7.0126   12.8737   23.9735 C   0  0  0  0  0  0  0  0  0  0  0  0
    7.3786   12.7686   22.6432 C   0  0  0  0  0  0  0  0  0  0  0  0
    7.3104   11.5455   21.9804 C   0  0  0  0  0  0  0  0  0  0  0  0
    7.6628   11.3665   20.5358 C   0  0  0  0  0  0  0  0  0  0  0  0
    9.3562   11.4393   18.7458 C   0  0  0  0  0  0  0  0  0  0  0  0
   10.7049   10.7378   18.7846 C   0  0  0  0  0  0  0  0  0  0  0  0
   12.7621   12.0084   18.4081 C   0  0  0  0  0  0  0  0  0  0  0  0
   14.1245   11.2637   18.5308 C   0  0  0  0  0  0  0  0  0  0  0  0
   14.4853   10.4352   17.3335 C   0  0  0  0  0  0  0  0  0  0  0  0
   14.2181    9.7779   18.6429 C   0  0  0  0  0  0  0  0  0  0  0  0
   11.1199   12.7790   20.0060 C   0  0  0  0  0  0  0  0  0  0  0  0
    9.9636   12.3621   20.9017 C   0  0  0  0  0  0  0  0  0  0  0  0
    6.8634   10.4334   22.6862 C   0  0  0  0  0  0  0  0  0  0  0  0
    6.5147   10.5306   24.0224 C   0  0  0  0  0  0  0  0  0  0  0  0
    6.2185   10.6440   27.1706 S   0  0  0  0  0  0  0  0  0  0  0  0
  2  4  2  0  0  0  0
  4  7  1  0  0  0  0
  7 10  2  0  0  0  0
 10 12  1  0  0  0  0
  1 13  1  0  0  0  0
  2 13  1  0  0  0  0
 12 13  2  0  0  0  0
  1 14  2  0  0  0  0
 14 15  1  0  0  0  0
 12 16  1  0  0  0  0
 15 16  2  0  0  0  0
  5 17  1  0  0  0  0
 17 18  2  0  0  0  0
 18 19  1  0  0  0  0
 19 20  2  0  0  0  0
  6 21  2  0  0  0  0
  8 21  1  0  0  0  0
 20 21  1  0  0  0  0
  8 22  1  0  0  0  0
 11 23  1  0  0  0  0
 22 23  1  0  0  0  0
 11 24  1  0  0  0  0
 24 25  1  0  0  0  0
 25 26  1  0  0  0  0
 25 27  1  0  0  0  0
 26 27  1  0  0  0  0
 11 28  1  0  0  0  0
  8 29  1  0  0  0  0
 28 29  1  0  0  0  0
 20 30  1  0  0  0  0
 17 31  1  0  0  0  0
 30 31  2  0  0  0  0
  2 32  1  0  0  0  0
  3 32  2  0  0  0  0
  5 32  1  0  0  0  0
  9 32  2  0  0  0  0
M  END
$$$$
