8XFD
  PyMOL3.1          3D                             0

 64 72  0  0  0  0  0  0  0  0999 V2000
    8.1635   12.7042   28.2541 N   0  0  0  0  0  0  0  0  0  0  0  0
    7.9017   10.3842   27.6385 C   0  0  0  0  0  0  0  0  0  0  0  0
    5.7413    9.4515   26.5394 O   0  0  0  0  0  0  0  0  0  0  0  0
    8.4256    9.1251   27.4883 C   0  0  0  0  0  0  0  0  0  0  0  0
    6.3235   11.8524   26.0724 N   0  0  0  0  0  0  0  0  0  0  0  0
    6.8305   10.8796   19.7831 O   0  0  0  0  0  0  0  0  0  0  0  0
    9.7619    8.8796   27.7459 C   0  0  0  0  0  0  0  0  0  0  0  0
    8.8982   11.7297   20.1084 N   0  0  0  0  0  0  0  0  0  0  0  0
    5.4956   11.1976   28.2741 O   0  0  0  0  0  0  0  0  0  0  0  0
   10.5867    9.8847   28.1574 C   0  0  0  0  0  0  0  0  0  0  0  0
   11.7410   11.6041   19.3816 N   0  0  0  0  0  0  0  0  0  0  0  0
   10.0923   11.2054   28.3367 C   0  0  0  0  0  0  0  0  0  0  0  0
    8.7367   11.4651   28.0794 C   0  0  0  0  0  0  0  0  0  0  0  0
    8.9613   13.6722   28.6888 C   0  0  0  0  0  0  0  0  0  0  0  0
   10.3188   13.5142   28.9636 C   0  0  0  0  0  0  0  0  0  0  0  0
   10.8829   12.2880   28.7874 C   0  0  0  0  0  0  0  0  0  0  0  0
    6.5757   11.7529   24.6738 C   0  0  0  0  0  0  0  0  0  0  0  0
    7.0126   12.8737   23.9735 C   0  0  0  0  0  0  0  0  0  0  0  0
    7.3786   12.7686   22.6432 C   0  0  0  0  0  0  0  0  0  0  0  0
    7.3104   11.5455   21.9804 C   0  0  0  0  0  0  0  0  0  0  0  0
    7.6628   11.3665   20.5358 C   0  0  0  0  0  0  0  0  0  0  0  0
    9.3562   11.4393   18.7458 C   0  0  0  0  0  0  0  0  0  0  0  0
   10.7049   10.7378   18.7846 C   0  0  0  0  0  0  0  0  0  0  0  0
   12.7621   12.0084   18.4081 C   0  0  0  0  0  0  0  0  0  0  0  0
   14.1245   11.2637   18.5308 C   0  0  0  0  0  0  0  0  0  0  0  0
   14.4853   10.4352   17.3335 C   0  0  0  0  0  0  0  0  0  0  0  0
   14.2181    9.7779   18.6429 C   0  0  0  0  0  0  0  0  0  0  0  0
   11.1199   12.7790   20.0060 C   0  0  0  0  0  0  0  0  0  0  0  0
    9.9636   12.3621   20.9017 C   0  0  0  0  0  0  0  0  0  0  0  0
    6.8634   10.4334   22.6862 C   0  0  0  0  0  0  0  0  0  0  0  0
    6.5147   10.5306   24.0224 C   0  0  0  0  0  0  0  0  0  0  0  0
    6.2185   10.6440   27.1706 S   0  0  0  0  0  0  0  0  0  0  0  0
   30.2301   -8.7820   31.2248 N   0  0  0  0  0  0  0  0  0  0  0  0
   28.0487   -9.0710   30.2358 C   0  0  0  0  0  0  0  0  0  0  0  0
   29.5507  -10.9522   29.1960 O   0  0  0  0  0  0  0  0  0  0  0  0
   26.8222   -8.5840   29.8679 C   0  0  0  0  0  0  0  0  0  0  0  0
   28.7570  -11.3395   31.4744 N   0  0  0  0  0  0  0  0  0  0  0  0
   25.2948  -14.6611   35.7976 O   0  0  0  0  0  0  0  0  0  0  0  0
   26.5124   -7.2522   30.0950 C   0  0  0  0  0  0  0  0  0  0  0  0
   24.8932  -12.5276   36.3964 N   0  0  0  0  0  0  0  0  0  0  0  0
   27.1502  -11.4308   29.5417 O   0  0  0  0  0  0  0  0  0  0  0  0
   27.4166   -6.4146   30.6801 C   0  0  0  0  0  0  0  0  0  0  0  0
   22.8691  -10.6795   37.2423 N   0  0  0  0  0  0  0  0  0  0  0  0
   28.6962   -6.8885   31.0807 C   0  0  0  0  0  0  0  0  0  0  0  0
   29.0218   -8.2563   30.8513 C   0  0  0  0  0  0  0  0  0  0  0  0
   31.1005   -7.9815   31.8074 C   0  0  0  0  0  0  0  0  0  0  0  0
   30.8702   -6.6368   32.0694 C   0  0  0  0  0  0  0  0  0  0  0  0
   29.6744   -6.0939   31.7118 C   0  0  0  0  0  0  0  0  0  0  0  0
   28.0194  -12.0621   32.4544 C   0  0  0  0  0  0  0  0  0  0  0  0
   28.4618  -12.0298   33.7729 C   0  0  0  0  0  0  0  0  0  0  0  0
   27.6525  -12.5021   34.7924 C   0  0  0  0  0  0  0  0  0  0  0  0
   26.3939  -13.0322   34.5164 C   0  0  0  0  0  0  0  0  0  0  0  0
   25.4883  -13.4720   35.6273 C   0  0  0  0  0  0  0  0  0  0  0  0
   25.0431  -11.0824   36.1878 C   0  0  0  0  0  0  0  0  0  0  0  0
   23.6845  -10.4306   36.0464 C   0  0  0  0  0  0  0  0  0  0  0  0
   23.4647  -10.0945   38.4598 C   0  0  0  0  0  0  0  0  0  0  0  0
   22.5096   -9.0711   39.2042 C   0  0  0  0  0  0  0  0  0  0  0  0
   22.9396   -8.2007   40.3465 C   0  0  0  0  0  0  0  0  0  0  0  0
   22.0233   -9.3522   40.5876 C   0  0  0  0  0  0  0  0  0  0  0  0
   22.6772  -12.1264   37.3867 C   0  0  0  0  0  0  0  0  0  0  0  0
   24.0162  -12.8348   37.5344 C   0  0  0  0  0  0  0  0  0  0  0  0
   25.9862  -13.1193   33.1889 C   0  0  0  0  0  0  0  0  0  0  0  0
   26.7850  -12.6312   32.1680 C   0  0  0  0  0  0  0  0  0  0  0  0
   28.3603  -10.8045   29.9783 S   0  0  0  0  0  0  0  0  0  0  0  0
  2  4  2  0  0  0  0
  4  7  1  0  0  0  0
  7 10  2  0  0  0  0
 10 12  1  0  0  0  0
  1 13  1  0  0  0  0
  2 13  1  0  0  0  0
 12 13  2  0  0  0  0
  1 14  2  0  0  0  0
 14 15  1  0  0  0  0
 12 16  1  0  0  0  0
 15 16  2  0  0  0  0
  5 17  1  0  0  0  0
 17 18  2  0  0  0  0
 18 19  1  0  0  0  0
 19 20  2  0  0  0  0
  6 21  2  0  0  0  0
  8 21  1  0  0  0  0
 20 21  1  0  0  0  0
  8 22  1  0  0  0  0
 11 23  1  0  0  0  0
 22 23  1  0  0  0  0
 11 24  1  0  0  0  0
 24 25  1  0  0  0  0
 25 26  1  0  0  0  0
 25 27  1  0  0  0  0
 26 27  1  0  0  0  0
 11 28  1  0  0  0  0
  8 29  1  0  0  0  0
 28 29  1  0  0  0  0
 20 30  1  0  0  0  0
 17 31  1  0  0  0  0
 30 31  2  0  0  0  0
  2 32  1  0  0  0  0
  3 32  2  0  0  0  0
  5 32  1  0  0  0  0
  9 32  2  0  0  0  0
 34 36  2  0  0  0  0
 36 39  1  0  0  0  0
 39 42  2  0  0  0  0
 42 44  1  0  0  0  0
 33 45  1  0  0  0  0
 34 45  1  0  0  0  0
 44 45  2  0  0  0  0
 33 46  2  0  0  0  0
 46 47  1  0  0  0  0
 44 48  1  0  0  0  0
 47 48  2  0  0  0  0
 37 49  1  0  0  0  0
 49 50  2  0  0  0  0
 50 51  1  0  0  0  0
 51 52  2  0  0  0  0
 38 53  2  0  0  0  0
 40 53  1  0  0  0  0
 52 53  1  0  0  0  0
 40 54  1  0  0  0  0
 43 55  1  0  0  0  0
 54 55  1  0  0  0  0
 43 56  1  0  0  0  0
 56 57  1  0  0  0  0
 57 58  1  0  0  0  0
 57 59  1  0  0  0  0
 58 59  1  0  0  0  0
 43 60  1  0  0  0  0
 40 61  1  0  0  0  0
 60 61  1  0  0  0  0
 52 62  1  0  0  0  0
 49 63  1  0  0  0  0
 62 63  2  0  0  0  0
 34 64  1  0  0  0  0
 35 64  2  0  0  0  0
 37 64  1  0  0  0  0
 41 64  2  0  0  0  0
M  END
$$$$
