7M93
  PyMOL3.1          3D                             0

 27 30  0  0  0  0  0  0  0  0999 V2000
   -1.8163    8.9230   27.4526 N   0  0  0  0  0  0  0  0  0  0  0  0
   -0.4279   19.3429   24.8424 C   0  0  0  0  0  0  0  0  0  0  0  0
   -0.3238   17.9331   24.6764 O   0  0  0  0  0  0  0  0  0  0  0  0
   -1.2526   17.1528   25.3045 C   0  0  0  0  0  0  0  0  0  0  0  0
   -1.3262    6.4648   28.8424 N   0  0  0  0  0  0  0  0  0  0  0  0
   -1.0201   15.7783   25.2240 C   0  0  0  0  0  0  0  0  0  0  0  0
    0.1609   15.2672   24.4305 C   0  0  0  0  0  0  0  0  0  0  0  0
   -0.0315   13.8731   23.8042 C   0  0  0  0  0  0  0  0  0  0  0  0
   -1.2960   13.1707   24.3052 C   0  0  0  0  0  0  0  0  0  0  0  0
   -1.5261   13.4296   25.7929 C   0  0  0  0  0  0  0  0  0  0  0  0
   -2.5662   12.5259   26.4744 C   0  0  0  0  0  0  0  0  0  0  0  0
   -1.9586   11.4044   27.3129 C   0  0  0  0  0  0  0  0  0  0  0  0
   -2.6673   10.0791   27.1549 C   0  0  0  0  0  0  0  0  0  0  0  0
   -2.5340    7.6887   27.1326 C   0  0  0  0  0  0  0  0  0  0  0  0
   -1.6745    6.4871   27.4200 C   0  0  0  0  0  0  0  0  0  0  0  0
   -0.6563    5.2164   29.2283 C   0  0  0  0  0  0  0  0  0  0  0  0
    0.2158    5.3484   30.4685 C   0  0  0  0  0  0  0  0  0  0  0  0
    0.9170    4.0295   30.7680 C   0  0  0  0  0  0  0  0  0  0  0  0
   -0.0879    2.9082   30.9430 C   0  0  0  0  0  0  0  0  0  0  0  0
   -0.9686    2.7764   29.7148 C   0  0  0  0  0  0  0  0  0  0  0  0
   -1.6696    4.0913   29.3955 C   0  0  0  0  0  0  0  0  0  0  0  0
   -0.5716    7.6808   29.1686 C   0  0  0  0  0  0  0  0  0  0  0  0
   -1.4142    8.9056   28.8650 C   0  0  0  0  0  0  0  0  0  0  0  0
   -1.8840   14.8938   25.8645 C   0  0  0  0  0  0  0  0  0  0  0  0
   -2.9921   15.3917   26.5418 C   0  0  0  0  0  0  0  0  0  0  0  0
   -3.2202   16.7556   26.6033 C   0  0  0  0  0  0  0  0  0  0  0  0
   -2.3488   17.6442   25.9952 C   0  0  0  0  0  0  0  0  0  0  0  0
  2  3  1  0  0  0  0
  3  4  1  0  0  0  0
  4  6  1  0  0  0  0
  6  7  1  0  0  0  0
  7  8  1  0  0  0  0
  8  9  1  0  0  0  0
  9 10  1  0  0  0  0
 10 11  1  0  0  0  0
 11 12  1  0  0  0  0
  1 13  1  0  0  0  0
 12 13  1  0  0  0  0
  1 14  1  0  0  0  0
  5 15  1  0  0  0  0
 14 15  1  0  0  0  0
  5 16  1  0  0  0  0
 16 17  1  0  0  0  0
 17 18  1  0  0  0  0
 18 19  1  0  0  0  0
 19 20  1  0  0  0  0
 16 21  1  0  0  0  0
 20 21  1  0  0  0  0
  5 22  1  0  0  0  0
  1 23  1  0  0  0  0
 22 23  1  0  0  0  0
  6 24  2  0  0  0  0
 10 24  1  0  0  0  0
 24 25  1  0  0  0  0
 25 26  2  0  0  0  0
  4 27  2  0  0  0  0
 26 27  1  0  0  0  0
M  END
$$$$
