7M93
  PyMOL3.1          3D                             0

 27 30  0  0  0  0  0  0  0  0999 V2000
   31.4271   39.3245   18.6545 N   0  0  0  0  0  0  0  0  0  0  0  0
   29.3337   48.6057   22.5912 C   0  0  0  0  0  0  0  0  0  0  0  0
   30.3310   47.9067   21.8491 O   0  0  0  0  0  0  0  0  0  0  0  0
   30.1531   46.5647   21.6640 C   0  0  0  0  0  0  0  0  0  0  0  0
   31.1580   36.8539   17.1894 N   0  0  0  0  0  0  0  0  0  0  0  0
   31.1353   45.9346   20.8897 C   0  0  0  0  0  0  0  0  0  0  0  0
   32.3199   46.7424   20.4145 C   0  0  0  0  0  0  0  0  0  0  0  0
   33.4909   45.8687   20.0761 C   0  0  0  0  0  0  0  0  0  0  0  0
   33.0575   44.7857   19.0984 C   0  0  0  0  0  0  0  0  0  0  0  0
   32.0159   43.8506   19.7195 C   0  0  0  0  0  0  0  0  0  0  0  0
   31.3207   43.1662   18.5305 C   0  0  0  0  0  0  0  0  0  0  0  0
   30.8218   41.7422   18.7637 C   0  0  0  0  0  0  0  0  0  0  0  0
   31.9167   40.6942   18.8543 C   0  0  0  0  0  0  0  0  0  0  0  0
   32.5343   38.3714   18.5496 C   0  0  0  0  0  0  0  0  0  0  0  0
   32.0040   36.9570   18.3861 C   0  0  0  0  0  0  0  0  0  0  0  0
   30.6698   35.4844   16.9597 C   0  0  0  0  0  0  0  0  0  0  0  0
   29.6292   35.4098   15.8484 C   0  0  0  0  0  0  0  0  0  0  0  0
   29.1016   33.9872   15.6919 C   0  0  0  0  0  0  0  0  0  0  0  0
   30.2316   33.0136   15.4368 C   0  0  0  0  0  0  0  0  0  0  0  0
   31.2562   33.0816   16.5507 C   0  0  0  0  0  0  0  0  0  0  0  0
   31.8023   34.4969   16.7119 C   0  0  0  0  0  0  0  0  0  0  0  0
   30.0626   37.8275   17.2813 C   0  0  0  0  0  0  0  0  0  0  0  0
   30.6105   39.2304   17.4423 C   0  0  0  0  0  0  0  0  0  0  0  0
   31.0125   44.5644   20.6045 C   0  0  0  0  0  0  0  0  0  0  0  0
   29.9304   43.8618   21.1246 C   0  0  0  0  0  0  0  0  0  0  0  0
   28.9783   44.4979   21.8999 C   0  0  0  0  0  0  0  0  0  0  0  0
   29.0804   45.8504   22.1708 C   0  0  0  0  0  0  0  0  0  0  0  0
  2  3  1  0  0  0  0
  3  4  1  0  0  0  0
  4  6  1  0  0  0  0
  6  7  1  0  0  0  0
  7  8  1  0  0  0  0
  8  9  1  0  0  0  0
  9 10  1  0  0  0  0
 10 11  1  0  0  0  0
 11 12  1  0  0  0  0
  1 13  1  0  0  0  0
 12 13  1  0  0  0  0
  1 14  1  0  0  0  0
  5 15  1  0  0  0  0
 14 15  1  0  0  0  0
  5 16  1  0  0  0  0
 16 17  1  0  0  0  0
 17 18  1  0  0  0  0
 18 19  1  0  0  0  0
 19 20  1  0  0  0  0
 16 21  1  0  0  0  0
 20 21  1  0  0  0  0
  5 22  1  0  0  0  0
  1 23  1  0  0  0  0
 22 23  1  0  0  0  0
  6 24  2  0  0  0  0
 10 24  1  0  0  0  0
 24 25  1  0  0  0  0
 25 26  2  0  0  0  0
  4 27  2  0  0  0  0
 26 27  1  0  0  0  0
M  END
$$$$
