7EPE
  PyMOL3.1          3D                             0

 30 33  0  0  0  0  0  0  0  0999 V2000
   11.7990  -45.4430   44.6340 N   0  0  0  0  0  0  0  0  0  0  0  0
   11.3570  -44.1330   45.1750 C   0  0  0  0  0  0  0  0  0  0  0  0
   16.6190  -46.0090   40.0540 O   0  0  0  0  0  0  0  0  0  0  0  0
   13.0490  -45.7450   44.1030 C   0  0  0  0  0  0  0  0  0  0  0  0
   16.6450  -47.9400   38.9150 N   0  0  0  0  0  0  0  0  0  0  0  0
   17.3650  -53.2210   48.4760 O   0  0  0  0  0  0  0  0  0  0  0  0
   12.9520  -47.0740   43.6120 C   0  0  0  0  0  0  0  0  0  0  0  0
   16.1720  -49.1220   41.5530 N   0  0  0  0  0  0  0  0  0  0  0  0
   13.9860  -47.8440   42.9240 C   0  0  0  0  0  0  0  0  0  0  0  0
   16.3950  -52.9870   46.0250 N   0  0  0  0  0  0  0  0  0  0  0  0
   14.6220  -47.2420   41.8520 C   0  0  0  0  0  0  0  0  0  0  0  0
   10.9360  -46.5180   44.5280 N   0  0  0  0  0  0  0  0  0  0  0  0
   15.7150  -47.9160   41.2000 C   0  0  0  0  0  0  0  0  0  0  0  0
   16.3680  -47.2120   40.0270 C   0  0  0  0  0  0  0  0  0  0  0  0
   15.5180  -49.7460   42.6190 C   0  0  0  0  0  0  0  0  0  0  0  0
   16.0090  -51.0460   43.0140 C   0  0  0  0  0  0  0  0  0  0  0  0
   15.4390  -51.6920   44.1040 C   0  0  0  0  0  0  0  0  0  0  0  0
   16.0050  -53.0020   44.5700 C   0  0  0  0  0  0  0  0  0  0  0  0
   16.5240  -54.4310   46.4880 C   0  0  0  0  0  0  0  0  0  0  0  0
   16.8200  -54.4570   48.0120 C   0  0  0  0  0  0  0  0  0  0  0  0
   18.2790  -52.5700   47.6210 C   0  0  0  0  0  0  0  0  0  0  0  0
   18.7100  -51.3130   48.4320 C   0  0  0  0  0  0  0  0  0  0  0  0
   17.6550  -52.1660   46.2540 C   0  0  0  0  0  0  0  0  0  0  0  0
   14.3500  -51.1110   44.8230 C   0  0  0  0  0  0  0  0  0  0  0  0
   13.8560  -49.8790   44.4430 C   0  0  0  0  0  0  0  0  0  0  0  0
   14.4200  -49.1480   43.3410 C   0  0  0  0  0  0  0  0  0  0  0  0
   11.6170  -47.5120   43.9040 C   0  0  0  0  0  0  0  0  0  0  0  0
   18.1170  -50.1760   48.0290 F   0  0  0  0  0  0  0  0  0  0  0  0
   20.0210  -51.1020   48.3340 F   0  0  0  0  0  0  0  0  0  0  0  0
   18.4380  -51.3690   49.7460 F   0  0  0  0  0  0  0  0  0  0  0  0
  1  2  1  0  0  0  0
  1  4  1  0  0  0  0
  4  7  2  0  0  0  0
  7  9  1  0  0  0  0
  9 11  2  0  0  0  0
  1 12  1  0  0  0  0
  8 13  2  0  0  0  0
 11 13  1  0  0  0  0
  3 14  2  0  0  0  0
  5 14  1  0  0  0  0
 13 14  1  0  0  0  0
  8 15  1  0  0  0  0
 15 16  2  0  0  0  0
 16 17  1  0  0  0  0
 10 18  1  0  0  0  0
 17 18  1  0  0  0  0
 10 19  1  0  0  0  0
  6 20  1  0  0  0  0
 19 20  1  0  0  0  0
  6 21  1  0  0  0  0
 21 22  1  0  0  0  0
 10 23  1  0  0  0  0
 21 23  1  0  0  0  0
 17 24  2  0  0  0  0
 24 25  1  0  0  0  0
  9 26  1  0  0  0  0
 15 26  1  0  0  0  0
 25 26  2  0  0  0  0
  7 27  1  0  0  0  0
 12 27  2  0  0  0  0
 22 28  1  0  0  0  0
 22 29  1  0  0  0  0
 22 30  1  0  0  0  0
M  END
$$$$
