6QU4
  PyMOL3.1          3D                             0

 24 26  0  0  0  0  0  0  0  0999 V2000
   10.2510   35.3420  -23.7070 Cl  0  0  0  0  0  0  0  0  0  0  0  0
   12.4190   35.7210  -25.8840 Cl  0  0  0  0  0  0  0  0  0  0  0  0
   12.0560   39.5120  -24.2620 C   0  0  0  0  0  0  0  0  0  0  0  0
   12.4840   38.4400  -25.0580 C   0  0  0  0  0  0  0  0  0  0  0  0
   11.9290   37.1600  -24.8900 C   0  0  0  0  0  0  0  0  0  0  0  0
   10.9520   36.9720  -23.9290 C   0  0  0  0  0  0  0  0  0  0  0  0
   10.5200   38.0210  -23.1370 C   0  0  0  0  0  0  0  0  0  0  0  0
   11.0740   39.2870  -23.3020 C   0  0  0  0  0  0  0  0  0  0  0  0
   12.6370   40.9080  -24.3920 C   0  0  0  0  0  0  0  0  0  0  0  0
   14.0040   40.8480  -23.8560 N   0  0  0  0  0  0  0  0  0  0  0  0
   14.4200   41.1460  -22.5900 C   0  0  0  0  0  0  0  0  0  0  0  0
   15.8680   40.8920  -22.5930 C   0  0  0  0  0  0  0  0  0  0  0  0
   16.2150   40.4460  -23.8880 C   0  0  0  0  0  0  0  0  0  0  0  0
   15.0490   40.4330  -24.6210 C   0  0  0  0  0  0  0  0  0  0  0  0
   16.6310   41.1300  -21.3450 C   0  0  0  0  0  0  0  0  0  0  0  0
   15.9480   41.5890  -20.2020 N   0  0  0  0  0  0  0  0  0  0  0  0
   14.6130   41.8120  -20.2440 C   0  0  0  0  0  0  0  0  0  0  0  0
   13.8390   41.6020  -21.4020 C   0  0  0  0  0  0  0  0  0  0  0  0
   17.8580   40.9240  -21.3180 O   0  0  0  0  0  0  0  0  0  0  0  0
   16.7090   41.8180  -18.9650 C   0  0  0  0  0  0  0  0  0  0  0  0
   16.7360   40.5450  -18.1130 C   0  0  0  0  0  0  0  0  0  0  0  0
   17.6660   39.5100  -18.6170 N   0  0  0  0  0  0  0  0  0  0  0  0
   19.0830   39.9110  -18.4750 C   0  0  0  0  0  0  0  0  0  0  0  0
   17.4510   38.2610  -17.8670 C   0  0  0  0  0  0  0  0  0  0  0  0
  3  4  2  0  0  0  0
  2  5  1  0  0  0  0
  4  5  1  0  0  0  0
  1  6  1  0  0  0  0
  5  6  2  0  0  0  0
  6  7  1  0  0  0  0
  3  8  1  0  0  0  0
  7  8  2  0  0  0  0
  3  9  1  0  0  0  0
  9 10  1  0  0  0  0
 10 11  1  0  0  0  0
 11 12  2  0  0  0  0
 12 13  1  0  0  0  0
 10 14  1  0  0  0  0
 13 14  2  0  0  0  0
 12 15  1  0  0  0  0
 15 16  1  0  0  0  0
 16 17  1  0  0  0  0
 11 18  1  0  0  0  0
 17 18  2  0  0  0  0
 15 19  2  0  0  0  0
 16 20  1  0  0  0  0
 20 21  1  0  0  0  0
 21 22  1  0  0  0  0
 22 23  1  0  0  0  0
 22 24  1  0  0  0  0
M  END
$$$$
