6QU4
  PyMOL3.1          3D                             0

 24 26  0  0  0  0  0  0  0  0999 V2000
  -19.1830   53.5070  -38.7480 Cl  0  0  0  0  0  0  0  0  0  0  0  0
  -18.5880   53.7040  -41.8470 Cl  0  0  0  0  0  0  0  0  0  0  0  0
  -19.4120   49.7390  -41.3290 C   0  0  0  0  0  0  0  0  0  0  0  0
  -19.0840   50.9680  -41.9040 C   0  0  0  0  0  0  0  0  0  0  0  0
  -19.0180   52.1090  -41.1140 C   0  0  0  0  0  0  0  0  0  0  0  0
  -19.2860   52.0230  -39.7520 C   0  0  0  0  0  0  0  0  0  0  0  0
  -19.6200   50.8110  -39.1590 C   0  0  0  0  0  0  0  0  0  0  0  0
  -19.6830   49.6650  -39.9510 C   0  0  0  0  0  0  0  0  0  0  0  0
  -19.5080   48.4990  -42.1970 C   0  0  0  0  0  0  0  0  0  0  0  0
  -20.6030   48.7340  -43.1540 N   0  0  0  0  0  0  0  0  0  0  0  0
  -21.9140   48.3750  -43.0000 C   0  0  0  0  0  0  0  0  0  0  0  0
  -22.5940   48.8510  -44.2060 C   0  0  0  0  0  0  0  0  0  0  0  0
  -21.6190   49.4830  -45.0040 C   0  0  0  0  0  0  0  0  0  0  0  0
  -20.4230   49.3890  -44.3300 C   0  0  0  0  0  0  0  0  0  0  0  0
  -24.0440   48.6070  -44.3530 C   0  0  0  0  0  0  0  0  0  0  0  0
  -24.7270   47.9300  -43.3240 N   0  0  0  0  0  0  0  0  0  0  0  0
  -24.0550   47.5030  -42.2330 C   0  0  0  0  0  0  0  0  0  0  0  0
  -22.6780   47.7070  -42.0450 C   0  0  0  0  0  0  0  0  0  0  0  0
  -24.6250   49.0120  -45.3770 O   0  0  0  0  0  0  0  0  0  0  0  0
  -26.1740   47.6700  -43.4310 C   0  0  0  0  0  0  0  0  0  0  0  0
  -26.9940   48.6740  -42.6140 C   0  0  0  0  0  0  0  0  0  0  0  0
  -26.9930   50.0420  -43.1770 N   0  0  0  0  0  0  0  0  0  0  0  0
  -27.6770   50.1090  -44.4830 C   0  0  0  0  0  0  0  0  0  0  0  0
  -27.6730   50.9630  -42.2470 C   0  0  0  0  0  0  0  0  0  0  0  0
  3  4  2  0  0  0  0
  2  5  1  0  0  0  0
  4  5  1  0  0  0  0
  1  6  1  0  0  0  0
  5  6  2  0  0  0  0
  6  7  1  0  0  0  0
  3  8  1  0  0  0  0
  7  8  2  0  0  0  0
  3  9  1  0  0  0  0
  9 10  1  0  0  0  0
 10 11  1  0  0  0  0
 11 12  2  0  0  0  0
 12 13  1  0  0  0  0
 10 14  1  0  0  0  0
 13 14  2  0  0  0  0
 12 15  1  0  0  0  0
 15 16  1  0  0  0  0
 16 17  1  0  0  0  0
 11 18  1  0  0  0  0
 17 18  2  0  0  0  0
 15 19  2  0  0  0  0
 16 20  1  0  0  0  0
 20 21  1  0  0  0  0
 21 22  1  0  0  0  0
 22 23  1  0  0  0  0
 22 24  1  0  0  0  0
M  END
$$$$
