8VY7
  PyMOL3.1          3D                             0

 23 25  0  0  0  0  0  0  0  0999 V2000
  134.5530  122.8200  112.8430 C   0  0  0  0  0  0  0  0  0  0  0  0
  135.9250  123.4040  113.1600 C   0  0  0  0  0  0  0  0  0  0  0  0
  136.9510  122.5890  113.6090 C   0  0  0  0  0  0  0  0  0  0  0  0
  138.1650  123.1930  113.8790 C   0  0  0  0  0  0  0  0  0  0  0  0
  139.3590  122.3880  114.3730 C   0  0  0  0  0  0  0  0  0  0  0  0
  138.2900  124.4880  113.7000 N   0  0  0  0  0  0  0  0  0  0  0  0
  137.3010  125.2400  113.2690 C   0  0  0  0  0  0  0  0  0  0  0  0
  137.4200  126.6790  113.0770 N   0  0  0  0  0  0  0  0  0  0  0  0
  138.5960  127.5340  113.1880 C   0  0  0  0  0  0  0  0  0  0  0  0
  138.5780  128.7180  112.4800 C   0  0  0  0  0  0  0  0  0  0  0  0
  137.3590  129.0590  111.6320 C   0  0  0  0  0  0  0  0  0  0  0  0
  136.9070  128.3700  110.5790 N   0  0  0  0  0  0  0  0  0  0  0  0
  135.8090  129.0020  110.1100 N   0  0  0  0  0  0  0  0  0  0  0  0
  135.5930  130.0740  110.8730 N   0  0  0  0  0  0  0  0  0  0  0  0
  136.5540  130.1130  111.8210 N   0  0  0  0  0  0  0  0  0  0  0  0
  139.6420  129.5960  112.5360 C   0  0  0  0  0  0  0  0  0  0  0  0
  140.7420  129.2900  113.3130 C   0  0  0  0  0  0  0  0  0  0  0  0
  140.7710  128.1080  114.0290 C   0  0  0  0  0  0  0  0  0  0  0  0
  139.6990  127.2400  113.9720 C   0  0  0  0  0  0  0  0  0  0  0  0
  136.1350  124.6960  113.0090 N   0  0  0  0  0  0  0  0  0  0  0  0
  139.0180  121.0730  114.4680 F   0  0  0  0  0  0  0  0  0  0  0  0
  140.3910  122.5350  113.4970 F   0  0  0  0  0  0  0  0  0  0  0  0
  139.7550  122.8540  115.5900 F   0  0  0  0  0  0  0  0  0  0  0  0
  1  2  1  0  0  0  0
  2  3  1  0  0  0  0
  3  4  2  0  0  0  0
  4  5  1  0  0  0  0
  4  6  1  0  0  0  0
  6  7  2  0  0  0  0
  7  8  1  0  0  0  0
  8  9  1  0  0  0  0
  9 10  1  0  0  0  0
 10 11  1  0  0  0  0
 11 12  1  0  0  0  0
 12 13  1  0  0  0  0
 13 14  2  0  0  0  0
 11 15  2  0  0  0  0
 14 15  1  0  0  0  0
 10 16  2  0  0  0  0
 16 17  1  0  0  0  0
 17 18  2  0  0  0  0
  9 19  2  0  0  0  0
 18 19  1  0  0  0  0
  2 20  2  0  0  0  0
  7 20  1  0  0  0  0
  5 21  1  0  0  0  0
  5 22  1  0  0  0  0
  5 23  1  0  0  0  0
M  END
$$$$
