8F1C
  PyMOL3.1          3D                             0

 51 55  0  0  0  0  0  0  0  0999 V2000
   99.8190   98.1110  107.7760 Cl  0  0  0  0  0  0  0  0  0  0  0  0
  100.0390   97.6530  104.7400 C   0  0  0  0  0  0  0  0  0  0  0  0
  101.0570   98.5760  105.3580 C   0  0  0  0  0  0  0  0  0  0  0  0
  102.0630   99.2010  104.5910 C   0  0  0  0  0  0  0  0  0  0  0  0
  102.9540  100.0390  105.2660 C   0  0  0  0  0  0  0  0  0  0  0  0
  102.9330  100.2960  106.5910 N   0  0  0  0  0  0  0  0  0  0  0  0
  101.9630   99.6870  107.3040 C   0  0  0  0  0  0  0  0  0  0  0  0
  101.0150   98.8320  106.7460 C   0  0  0  0  0  0  0  0  0  0  0  0
  101.8850   99.9110  108.6730 O   0  0  0  0  0  0  0  0  0  0  0  0
  102.7880  100.7670  109.2440 C   0  0  0  0  0  0  0  0  0  0  0  0
  102.8080  102.1340  108.9410 C   0  0  0  0  0  0  0  0  0  0  0  0
  103.7440  102.9800  109.5500 C   0  0  0  0  0  0  0  0  0  0  0  0
  104.6640  102.4740  110.4680 C   0  0  0  0  0  0  0  0  0  0  0  0
  104.6190  101.1250  110.7490 C   0  0  0  0  0  0  0  0  0  0  0  0
  103.7010  100.2700  110.1560 C   0  0  0  0  0  0  0  0  0  0  0  0
  103.9190   98.8870  110.6770 C   0  0  0  0  0  0  0  0  0  0  0  0
  105.3080   99.1040  111.3110 C   0  0  0  0  0  0  0  0  0  0  0  0
  105.4650  100.5070  111.6310 O   0  0  0  0  0  0  0  0  0  0  0  0
  102.8700   98.5370  111.7350 C   0  0  0  0  0  0  0  0  0  0  0  0
  103.9650   97.7880  109.6220 C   0  0  0  0  0  0  0  0  0  0  0  0
  102.2080   99.0320  103.1990 N   0  0  0  0  0  0  0  0  0  0  0  0
  103.3870   98.5590  102.5840 C   0  0  0  0  0  0  0  0  0  0  0  0
  103.1520   98.5370  101.2290 C   0  0  0  0  0  0  0  0  0  0  0  0
  104.1440   98.1120  100.4050 C   0  0  0  0  0  0  0  0  0  0  0  0
  105.3320   97.7160  100.9060 N   0  0  0  0  0  0  0  0  0  0  0  0
  105.4780   97.7700  102.2590 C   0  0  0  0  0  0  0  0  0  0  0  0
  104.5410   98.1810  103.1440 N   0  0  0  0  0  0  0  0  0  0  0  0
  106.7950   97.3310  102.8130 C   0  0  0  0  0  0  0  0  0  0  0  0
  101.8690   98.9840  100.9610 N   0  0  0  0  0  0  0  0  0  0  0  0
  101.2480   99.3080  102.1850 C   0  0  0  0  0  0  0  0  0  0  0  0
  100.1060   99.7330  102.2970 O   0  0  0  0  0  0  0  0  0  0  0  0
  101.4500   99.0660  100.0450 H   0  0  0  0  0  0  0  0  0  0  0  0
  102.1020  102.5500  108.2280 H   0  0  0  0  0  0  0  0  0  0  0  0
  103.7530  104.0390  109.3060 H   0  0  0  0  0  0  0  0  0  0  0  0
  105.3900  103.1220  110.9430 H   0  0  0  0  0  0  0  0  0  0  0  0
  104.0350   98.0660   99.3310 H   0  0  0  0  0  0  0  0  0  0  0  0
  103.7550  100.5560  104.7440 H   0  0  0  0  0  0  0  0  0  0  0  0
  106.1200   98.8430  110.6210 H   0  0  0  0  0  0  0  0  0  0  0  0
  105.4460   98.5170  112.2240 H   0  0  0  0  0  0  0  0  0  0  0  0
  102.8060   97.4510  111.8660 H   0  0  0  0  0  0  0  0  0  0  0  0
  103.1090   98.9760  112.7100 H   0  0  0  0  0  0  0  0  0  0  0  0
  101.8780   98.8980  111.4450 H   0  0  0  0  0  0  0  0  0  0  0  0
  104.2770   96.8390  110.0690 H   0  0  0  0  0  0  0  0  0  0  0  0
  102.9840   97.6280  109.1670 H   0  0  0  0  0  0  0  0  0  0  0  0
  104.6680   98.0290  108.8170 H   0  0  0  0  0  0  0  0  0  0  0  0
  107.1140   97.9990  103.6180 H   0  0  0  0  0  0  0  0  0  0  0  0
  106.7020   96.3180  103.2120 H   0  0  0  0  0  0  0  0  0  0  0  0
  107.5610   97.3370  102.0340 H   0  0  0  0  0  0  0  0  0  0  0  0
   99.8200   96.8080  105.3980 H   0  0  0  0  0  0  0  0  0  0  0  0
   99.1120   98.1910  104.5350 H   0  0  0  0  0  0  0  0  0  0  0  0
  100.4070   97.1910  103.8200 H   0  0  0  0  0  0  0  0  0  0  0  0
  2  3  1  0  0  0  0
  3  4  1  0  0  0  0
  4  5  2  0  0  0  0
  5  6  1  0  0  0  0
  6  7  2  0  0  0  0
  1  8  1  0  0  0  0
  3  8  2  0  0  0  0
  7  8  1  0  0  0  0
  7  9  1  0  0  0  0
  9 10  1  0  0  0  0
 10 11  2  0  0  0  0
 11 12  1  0  0  0  0
 12 13  2  0  0  0  0
 13 14  1  0  0  0  0
 10 15  1  0  0  0  0
 14 15  2  0  0  0  0
 15 16  1  0  0  0  0
 16 17  1  0  0  0  0
 14 18  1  0  0  0  0
 17 18  1  0  0  0  0
 16 19  1  0  0  0  0
 16 20  1  0  0  0  0
  4 21  1  0  0  0  0
 21 22  1  0  0  0  0
 22 23  2  0  0  0  0
 23 24  1  0  0  0  0
 24 25  2  0  0  0  0
 25 26  1  0  0  0  0
 22 27  1  0  0  0  0
 26 27  2  0  0  0  0
 26 28  1  0  0  0  0
 23 29  1  0  0  0  0
 21 30  1  0  0  0  0
 29 30  1  0  0  0  0
 30 31  2  0  0  0  0
 29 32  1  0  0  0  0
 11 33  1  0  0  0  0
 12 34  1  0  0  0  0
 13 35  1  0  0  0  0
 24 36  1  0  0  0  0
  5 37  1  0  0  0  0
 17 38  1  0  0  0  0
 17 39  1  0  0  0  0
 19 40  1  0  0  0  0
 19 41  1  0  0  0  0
 19 42  1  0  0  0  0
 20 43  1  0  0  0  0
 20 44  1  0  0  0  0
 20 45  1  0  0  0  0
 28 46  1  0  0  0  0
 28 47  1  0  0  0  0
 28 48  1  0  0  0  0
  2 49  1  0  0  0  0
  2 50  1  0  0  0  0
  2 51  1  0  0  0  0
M  END
$$$$
