8F1C
  PyMOL3.1          3D                             0

 51 55  0  0  0  0  0  0  0  0999 V2000
  142.1050  143.8000  107.7790 Cl  0  0  0  0  0  0  0  0  0  0  0  0
  141.8850  144.2580  104.7430 C   0  0  0  0  0  0  0  0  0  0  0  0
  140.8670  143.3350  105.3610 C   0  0  0  0  0  0  0  0  0  0  0  0
  139.8600  142.7110  104.5940 C   0  0  0  0  0  0  0  0  0  0  0  0
  138.9690  141.8730  105.2700 C   0  0  0  0  0  0  0  0  0  0  0  0
  138.9900  141.6150  106.5940 N   0  0  0  0  0  0  0  0  0  0  0  0
  139.9600  142.2250  107.3070 C   0  0  0  0  0  0  0  0  0  0  0  0
  140.9090  143.0790  106.7490 C   0  0  0  0  0  0  0  0  0  0  0  0
  140.0380  142.0000  108.6760 O   0  0  0  0  0  0  0  0  0  0  0  0
  139.1350  141.1450  109.2480 C   0  0  0  0  0  0  0  0  0  0  0  0
  139.1150  139.7780  108.9450 C   0  0  0  0  0  0  0  0  0  0  0  0
  138.1780  138.9310  109.5540 C   0  0  0  0  0  0  0  0  0  0  0  0
  137.2600  139.4380  110.4710 C   0  0  0  0  0  0  0  0  0  0  0  0
  137.3050  140.7870  110.7530 C   0  0  0  0  0  0  0  0  0  0  0  0
  138.2220  141.6420  110.1600 C   0  0  0  0  0  0  0  0  0  0  0  0
  138.0050  143.0240  110.6810 C   0  0  0  0  0  0  0  0  0  0  0  0
  136.6160  142.8080  111.3150 C   0  0  0  0  0  0  0  0  0  0  0  0
  136.4580  141.4050  111.6350 O   0  0  0  0  0  0  0  0  0  0  0  0
  139.0540  143.3750  111.7380 C   0  0  0  0  0  0  0  0  0  0  0  0
  137.9590  144.1240  109.6260 C   0  0  0  0  0  0  0  0  0  0  0  0
  139.7150  142.8790  103.2030 N   0  0  0  0  0  0  0  0  0  0  0  0
  138.5360  143.3530  102.5870 C   0  0  0  0  0  0  0  0  0  0  0  0
  138.7720  143.3740  101.2330 C   0  0  0  0  0  0  0  0  0  0  0  0
  137.7800  143.8000  100.4090 C   0  0  0  0  0  0  0  0  0  0  0  0
  136.5920  144.1960  100.9100 N   0  0  0  0  0  0  0  0  0  0  0  0
  136.4450  144.1420  102.2630 C   0  0  0  0  0  0  0  0  0  0  0  0
  137.3830  143.7310  103.1480 N   0  0  0  0  0  0  0  0  0  0  0  0
  135.1290  144.5810  102.8170 C   0  0  0  0  0  0  0  0  0  0  0  0
  140.0540  142.9270  100.9640 N   0  0  0  0  0  0  0  0  0  0  0  0
  140.6760  142.6030  102.1890 C   0  0  0  0  0  0  0  0  0  0  0  0
  141.8170  142.1780  102.3010 O   0  0  0  0  0  0  0  0  0  0  0  0
  140.4740  142.8450  100.0480 H   0  0  0  0  0  0  0  0  0  0  0  0
  139.8210  139.3610  108.2310 H   0  0  0  0  0  0  0  0  0  0  0  0
  138.1690  137.8730  109.3100 H   0  0  0  0  0  0  0  0  0  0  0  0
  136.5330  138.7900  110.9470 H   0  0  0  0  0  0  0  0  0  0  0  0
  137.8890  143.8450   99.3350 H   0  0  0  0  0  0  0  0  0  0  0  0
  138.1680  141.3560  104.7470 H   0  0  0  0  0  0  0  0  0  0  0  0
  135.8040  143.0700  110.6250 H   0  0  0  0  0  0  0  0  0  0  0  0
  136.4780  143.3950  112.2280 H   0  0  0  0  0  0  0  0  0  0  0  0
  139.1180  144.4600  111.8700 H   0  0  0  0  0  0  0  0  0  0  0  0
  138.8150  142.9360  112.7140 H   0  0  0  0  0  0  0  0  0  0  0  0
  140.0460  143.0130  111.4490 H   0  0  0  0  0  0  0  0  0  0  0  0
  137.6470  145.0730  110.0720 H   0  0  0  0  0  0  0  0  0  0  0  0
  138.9410  144.2840  109.1700 H   0  0  0  0  0  0  0  0  0  0  0  0
  137.2570  143.8830  108.8210 H   0  0  0  0  0  0  0  0  0  0  0  0
  134.8100  143.9140  103.6220 H   0  0  0  0  0  0  0  0  0  0  0  0
  135.2220  145.5950  103.2160 H   0  0  0  0  0  0  0  0  0  0  0  0
  134.3630  144.5760  102.0380 H   0  0  0  0  0  0  0  0  0  0  0  0
  142.1040  145.1020  105.4020 H   0  0  0  0  0  0  0  0  0  0  0  0
  142.8110  143.7200  104.5380 H   0  0  0  0  0  0  0  0  0  0  0  0
  141.5170  144.7200  103.8240 H   0  0  0  0  0  0  0  0  0  0  0  0
  2  3  1  0  0  0  0
  3  4  1  0  0  0  0
  4  5  2  0  0  0  0
  5  6  1  0  0  0  0
  6  7  2  0  0  0  0
  1  8  1  0  0  0  0
  3  8  2  0  0  0  0
  7  8  1  0  0  0  0
  7  9  1  0  0  0  0
  9 10  1  0  0  0  0
 10 11  2  0  0  0  0
 11 12  1  0  0  0  0
 12 13  2  0  0  0  0
 13 14  1  0  0  0  0
 10 15  1  0  0  0  0
 14 15  2  0  0  0  0
 15 16  1  0  0  0  0
 16 17  1  0  0  0  0
 14 18  1  0  0  0  0
 17 18  1  0  0  0  0
 16 19  1  0  0  0  0
 16 20  1  0  0  0  0
  4 21  1  0  0  0  0
 21 22  1  0  0  0  0
 22 23  2  0  0  0  0
 23 24  1  0  0  0  0
 24 25  2  0  0  0  0
 25 26  1  0  0  0  0
 22 27  1  0  0  0  0
 26 27  2  0  0  0  0
 26 28  1  0  0  0  0
 23 29  1  0  0  0  0
 21 30  1  0  0  0  0
 29 30  1  0  0  0  0
 30 31  2  0  0  0  0
 29 32  1  0  0  0  0
 11 33  1  0  0  0  0
 12 34  1  0  0  0  0
 13 35  1  0  0  0  0
 24 36  1  0  0  0  0
  5 37  1  0  0  0  0
 17 38  1  0  0  0  0
 17 39  1  0  0  0  0
 19 40  1  0  0  0  0
 19 41  1  0  0  0  0
 19 42  1  0  0  0  0
 20 43  1  0  0  0  0
 20 44  1  0  0  0  0
 20 45  1  0  0  0  0
 28 46  1  0  0  0  0
 28 47  1  0  0  0  0
 28 48  1  0  0  0  0
  2 49  1  0  0  0  0
  2 50  1  0  0  0  0
  2 51  1  0  0  0  0
M  END
$$$$
