8F1C
  PyMOL3.1          3D                             0

 51 55  0  0  0  0  0  0  0  0999 V2000
   98.1200  142.1060  107.7770 Cl  0  0  0  0  0  0  0  0  0  0  0  0
   97.6620  141.8850  104.7410 C   0  0  0  0  0  0  0  0  0  0  0  0
   98.5850  140.8670  105.3590 C   0  0  0  0  0  0  0  0  0  0  0  0
   99.2100  139.8610  104.5920 C   0  0  0  0  0  0  0  0  0  0  0  0
  100.0480  138.9690  105.2680 C   0  0  0  0  0  0  0  0  0  0  0  0
  100.3050  138.9910  106.5920 N   0  0  0  0  0  0  0  0  0  0  0  0
   99.6960  139.9610  107.3050 C   0  0  0  0  0  0  0  0  0  0  0  0
   98.8410  140.9090  106.7470 C   0  0  0  0  0  0  0  0  0  0  0  0
   99.9200  140.0390  108.6740 O   0  0  0  0  0  0  0  0  0  0  0  0
  100.7760  139.1360  109.2460 C   0  0  0  0  0  0  0  0  0  0  0  0
  102.1430  139.1160  108.9430 C   0  0  0  0  0  0  0  0  0  0  0  0
  102.9890  138.1790  109.5520 C   0  0  0  0  0  0  0  0  0  0  0  0
  102.4820  137.2600  110.4690 C   0  0  0  0  0  0  0  0  0  0  0  0
  101.1330  137.3050  110.7510 C   0  0  0  0  0  0  0  0  0  0  0  0
  100.2790  138.2230  110.1580 C   0  0  0  0  0  0  0  0  0  0  0  0
   98.8960  138.0060  110.6790 C   0  0  0  0  0  0  0  0  0  0  0  0
   99.1120  136.6160  111.3130 C   0  0  0  0  0  0  0  0  0  0  0  0
  100.5150  136.4590  111.6330 O   0  0  0  0  0  0  0  0  0  0  0  0
   98.5460  139.0550  111.7360 C   0  0  0  0  0  0  0  0  0  0  0  0
   97.7960  137.9600  109.6240 C   0  0  0  0  0  0  0  0  0  0  0  0
   99.0410  139.7160  103.2010 N   0  0  0  0  0  0  0  0  0  0  0  0
   98.5670  138.5370  102.5850 C   0  0  0  0  0  0  0  0  0  0  0  0
   98.5460  138.7720  101.2310 C   0  0  0  0  0  0  0  0  0  0  0  0
   98.1200  137.7800  100.4070 C   0  0  0  0  0  0  0  0  0  0  0  0
   97.7240  136.5920  100.9080 N   0  0  0  0  0  0  0  0  0  0  0  0
   97.7780  136.4460  102.2610 C   0  0  0  0  0  0  0  0  0  0  0  0
   98.1890  137.3830  103.1460 N   0  0  0  0  0  0  0  0  0  0  0  0
   97.3390  135.1290  102.8150 C   0  0  0  0  0  0  0  0  0  0  0  0
   98.9930  140.0540  100.9620 N   0  0  0  0  0  0  0  0  0  0  0  0
   99.3170  140.6760  102.1870 C   0  0  0  0  0  0  0  0  0  0  0  0
   99.7430  141.8180  102.2990 O   0  0  0  0  0  0  0  0  0  0  0  0
   99.0750  140.4740  100.0460 H   0  0  0  0  0  0  0  0  0  0  0  0
  102.5590  139.8210  108.2290 H   0  0  0  0  0  0  0  0  0  0  0  0
  104.0470  138.1700  109.3080 H   0  0  0  0  0  0  0  0  0  0  0  0
  103.1300  136.5340  110.9450 H   0  0  0  0  0  0  0  0  0  0  0  0
   98.0750  137.8890   99.3330 H   0  0  0  0  0  0  0  0  0  0  0  0
  100.5640  138.1680  104.7460 H   0  0  0  0  0  0  0  0  0  0  0  0
   98.8510  135.8050  110.6230 H   0  0  0  0  0  0  0  0  0  0  0  0
   98.5250  136.4790  112.2260 H   0  0  0  0  0  0  0  0  0  0  0  0
   97.4600  139.1190  111.8680 H   0  0  0  0  0  0  0  0  0  0  0  0
   98.9850  138.8160  112.7120 H   0  0  0  0  0  0  0  0  0  0  0  0
   98.9070  140.0470  111.4470 H   0  0  0  0  0  0  0  0  0  0  0  0
   96.8470  137.6480  110.0710 H   0  0  0  0  0  0  0  0  0  0  0  0
   97.6360  138.9410  109.1680 H   0  0  0  0  0  0  0  0  0  0  0  0
   98.0370  137.2570  108.8190 H   0  0  0  0  0  0  0  0  0  0  0  0
   98.0060  134.8100  103.6200 H   0  0  0  0  0  0  0  0  0  0  0  0
   96.3260  135.2220  103.2140 H   0  0  0  0  0  0  0  0  0  0  0  0
   97.3440  134.3630  102.0360 H   0  0  0  0  0  0  0  0  0  0  0  0
   96.8180  142.1050  105.3990 H   0  0  0  0  0  0  0  0  0  0  0  0
   98.2000  142.8120  104.5360 H   0  0  0  0  0  0  0  0  0  0  0  0
   97.2010  141.5180  103.8210 H   0  0  0  0  0  0  0  0  0  0  0  0
  2  3  1  0  0  0  0
  3  4  1  0  0  0  0
  4  5  2  0  0  0  0
  5  6  1  0  0  0  0
  6  7  2  0  0  0  0
  1  8  1  0  0  0  0
  3  8  2  0  0  0  0
  7  8  1  0  0  0  0
  7  9  1  0  0  0  0
  9 10  1  0  0  0  0
 10 11  2  0  0  0  0
 11 12  1  0  0  0  0
 12 13  2  0  0  0  0
 13 14  1  0  0  0  0
 10 15  1  0  0  0  0
 14 15  2  0  0  0  0
 15 16  1  0  0  0  0
 16 17  1  0  0  0  0
 14 18  1  0  0  0  0
 17 18  1  0  0  0  0
 16 19  1  0  0  0  0
 16 20  1  0  0  0  0
  4 21  1  0  0  0  0
 21 22  1  0  0  0  0
 22 23  2  0  0  0  0
 23 24  1  0  0  0  0
 24 25  2  0  0  0  0
 25 26  1  0  0  0  0
 22 27  1  0  0  0  0
 26 27  2  0  0  0  0
 26 28  1  0  0  0  0
 23 29  1  0  0  0  0
 21 30  1  0  0  0  0
 29 30  1  0  0  0  0
 30 31  2  0  0  0  0
 29 32  1  0  0  0  0
 11 33  1  0  0  0  0
 12 34  1  0  0  0  0
 13 35  1  0  0  0  0
 24 36  1  0  0  0  0
  5 37  1  0  0  0  0
 17 38  1  0  0  0  0
 17 39  1  0  0  0  0
 19 40  1  0  0  0  0
 19 41  1  0  0  0  0
 19 42  1  0  0  0  0
 20 43  1  0  0  0  0
 20 44  1  0  0  0  0
 20 45  1  0  0  0  0
 28 46  1  0  0  0  0
 28 47  1  0  0  0  0
 28 48  1  0  0  0  0
  2 49  1  0  0  0  0
  2 50  1  0  0  0  0
  2 51  1  0  0  0  0
M  END
$$$$
