7SIL
  PyMOL3.1          3D                             0

 21 22  0  0  0  0  0  0  0  0999 V2000
  201.7030  219.9300  186.9350 Cl  0  0  0  0  0  0  0  0  0  0  0  0
  204.1300  225.3140  181.0120 C   0  0  0  0  0  0  0  0  0  0  0  0
  203.5190  223.9330  180.7300 C   0  0  0  0  0  0  0  0  0  0  0  0
  202.4540  224.0300  179.6470 C   0  0  0  0  0  0  0  0  0  0  0  0
  202.5530  223.2560  178.4920 C   0  0  0  0  0  0  0  0  0  0  0  0
  201.5700  223.3550  177.5040 C   0  0  0  0  0  0  0  0  0  0  0  0
  200.4820  224.2070  177.6320 C   0  0  0  0  0  0  0  0  0  0  0  0
  200.3950  224.9700  178.7840 C   0  0  0  0  0  0  0  0  0  0  0  0
  201.3650  224.8860  179.7780 C   0  0  0  0  0  0  0  0  0  0  0  0
  201.7230  222.5710  176.3890 O   0  0  0  0  0  0  0  0  0  0  0  0
  201.9660  221.2120  176.6690 C   0  0  0  0  0  0  0  0  0  0  0  0
  202.9620  223.3900  182.0110 N   0  0  0  0  0  0  0  0  0  0  0  0
  203.3280  221.9790  182.3260 C   0  0  0  0  0  0  0  0  0  0  0  0
  202.5940  221.4130  183.5790 C   0  0  0  0  0  0  0  0  0  0  0  0
  203.3450  220.2850  184.3170 C   0  0  0  0  0  0  0  0  0  0  0  0
  202.5660  219.0070  184.5240 C   0  0  0  0  0  0  0  0  0  0  0  0
  202.5680  217.9830  183.5710 C   0  0  0  0  0  0  0  0  0  0  0  0
  201.8520  216.8040  183.7560 C   0  0  0  0  0  0  0  0  0  0  0  0
  201.1030  216.5990  184.9080 C   0  0  0  0  0  0  0  0  0  0  0  0
  201.0780  217.5920  185.8770 C   0  0  0  0  0  0  0  0  0  0  0  0
  201.8030  218.7590  185.6640 C   0  0  0  0  0  0  0  0  0  0  0  0
  2  3  1  0  0  0  0
  3  4  1  0  0  0  0
  3 12  1  0  0  0  0
  4  5  4  0  0  0  0
  4  9  4  0  0  0  0
  5  6  4  0  0  0  0
  6  7  4  0  0  0  0
  6 10  1  0  0  0  0
  7  8  4  0  0  0  0
  8  9  4  0  0  0  0
 10 11  1  0  0  0  0
 12 13  1  0  0  0  0
 13 14  1  0  0  0  0
 14 15  1  0  0  0  0
 15 16  1  0  0  0  0
 16 17  4  0  0  0  0
 16 21  4  0  0  0  0
 17 18  4  0  0  0  0
 18 19  4  0  0  0  0
 19 20  4  0  0  0  0
 20 21  4  0  0  0  0
  1 21  1  0  0  0  0
M  END
$$$$
