7T4U
  PyMOL3.1          3D                             0

 35 38  0  0  0  0  0  0  0  0999 V2000
   16.5170   15.8830  -26.4140 Cl  0  0  0  0  0  0  0  0  0  0  0  0
   13.4850   11.4850  -26.0650 Cl  0  0  0  0  0  0  0  0  0  0  0  0
   11.0400   16.7280  -22.0580 O   0  0  0  0  0  0  0  0  0  0  0  0
   11.5030   15.9460  -23.1460 C   0  0  0  0  0  0  0  0  0  0  0  0
   12.8560   15.4150  -22.7610 C   0  0  0  0  0  0  0  0  0  0  0  0
   12.6090   14.4530  -21.7300 O   0  0  0  0  0  0  0  0  0  0  0  0
   13.7260   13.7820  -21.1210 C   0  0  0  0  0  0  0  0  0  0  0  0
   14.5750   14.7340  -20.3170 C   0  0  0  0  0  0  0  0  0  0  0  0
   13.7170   15.3780  -19.2570 C   0  0  0  0  0  0  0  0  0  0  0  0
   13.0100   14.3640  -18.3850 C   0  0  0  0  0  0  0  0  0  0  0  0
   12.2540   13.3290  -19.1670 N   0  0  0  0  0  0  0  0  0  0  0  0
   11.6970   12.3070  -18.2280 C   0  0  0  0  0  0  0  0  0  0  0  0
   10.5900   12.7930  -17.3330 C   0  0  0  0  0  0  0  0  0  0  0  0
    9.3250   12.8210  -17.8870 C   0  0  0  0  0  0  0  0  0  0  0  0
    8.2400   13.2600  -17.1580 C   0  0  0  0  0  0  0  0  0  0  0  0
    8.4000   13.6840  -15.8520 C   0  0  0  0  0  0  0  0  0  0  0  0
    9.6640   13.6550  -15.2940 C   0  0  0  0  0  0  0  0  0  0  0  0
   10.7610   13.2120  -16.0130 C   0  0  0  0  0  0  0  0  0  0  0  0
   11.9990   13.2370  -15.3460 N   0  0  0  0  0  0  0  0  0  0  0  0
    7.2340   14.1860  -15.0790 C   0  0  0  0  0  0  0  0  0  0  0  0
    7.5090   14.9900  -14.1420 O   0  0  0  0  0  0  0  0  0  0  0  0
    6.0730   13.8170  -15.4220 O   0  0  0  0  0  0  0  0  0  0  0  0
   13.1200   12.7040  -20.2350 C   0  0  0  0  0  0  0  0  0  0  0  0
   12.5060   11.6570  -21.1220 C   0  0  0  0  0  0  0  0  0  0  0  0
   11.2720   11.8310  -21.7250 C   0  0  0  0  0  0  0  0  0  0  0  0
   10.7740   10.8610  -22.5710 C   0  0  0  0  0  0  0  0  0  0  0  0
   11.4940    9.7060  -22.8070 C   0  0  0  0  0  0  0  0  0  0  0  0
   12.7170    9.5250  -22.2000 C   0  0  0  0  0  0  0  0  0  0  0  0
   13.2190   10.5030  -21.3740 C   0  0  0  0  0  0  0  0  0  0  0  0
   13.5560   14.8240  -23.9440 C   0  0  0  0  0  0  0  0  0  0  0  0
   14.5690   15.5330  -24.5570 C   0  0  0  0  0  0  0  0  0  0  0  0
   15.2510   15.0010  -25.6310 C   0  0  0  0  0  0  0  0  0  0  0  0
   14.9210   13.7550  -26.1000 C   0  0  0  0  0  0  0  0  0  0  0  0
   13.9010   13.0510  -25.4960 C   0  0  0  0  0  0  0  0  0  0  0  0
   13.2200   13.5740  -24.4190 C   0  0  0  0  0  0  0  0  0  0  0  0
  3  4  1  0  0  0  0
  4  5  1  0  0  0  0
  5  6  1  0  0  0  0
  6  7  1  0  0  0  0
  7  8  1  0  0  0  0
  8  9  1  0  0  0  0
  9 10  1  0  0  0  0
 10 11  1  0  0  0  0
 11 12  1  0  0  0  0
 12 13  1  0  0  0  0
 13 14  2  0  0  0  0
 14 15  1  0  0  0  0
 15 16  2  0  0  0  0
 16 17  1  0  0  0  0
 13 18  1  0  0  0  0
 17 18  2  0  0  0  0
 18 19  1  0  0  0  0
 16 20  1  0  0  0  0
 20 21  1  0  0  0  0
 20 22  2  0  0  0  0
  7 23  1  0  0  0  0
 11 23  1  0  0  0  0
 23 24  1  0  0  0  0
 24 25  2  0  0  0  0
 25 26  1  0  0  0  0
 26 27  2  0  0  0  0
 27 28  1  0  0  0  0
 24 29  1  0  0  0  0
 28 29  2  0  0  0  0
  5 30  1  0  0  0  0
 30 31  2  0  0  0  0
  1 32  1  0  0  0  0
 31 32  1  0  0  0  0
 32 33  2  0  0  0  0
  2 34  1  0  0  0  0
 33 34  1  0  0  0  0
 30 35  1  0  0  0  0
 34 35  2  0  0  0  0
M  END
$$$$
