7T4U
  PyMOL3.1          3D                             0

 35 38  0  0  0  0  0  0  0  0999 V2000
   37.2290    4.7900   -0.7380 Cl  0  0  0  0  0  0  0  0  0  0  0  0
   32.3300    6.3960    0.6450 Cl  0  0  0  0  0  0  0  0  0  0  0  0
   37.3620   10.4810    3.3850 O   0  0  0  0  0  0  0  0  0  0  0  0
   36.5460    9.7420    2.4850 C   0  0  0  0  0  0  0  0  0  0  0  0
   36.5620    8.3130    2.9570 C   0  0  0  0  0  0  0  0  0  0  0  0
   35.8320    8.3050    4.1870 O   0  0  0  0  0  0  0  0  0  0  0  0
   35.6830    7.0700    4.9100 C   0  0  0  0  0  0  0  0  0  0  0  0
   37.0050    6.5800    5.4490 C   0  0  0  0  0  0  0  0  0  0  0  0
   37.5850    7.6410    6.3470 C   0  0  0  0  0  0  0  0  0  0  0  0
   36.6360    8.0540    7.4480 C   0  0  0  0  0  0  0  0  0  0  0  0
   35.2690    8.4330    6.9490 N   0  0  0  0  0  0  0  0  0  0  0  0
   34.3610    8.7010    8.1220 C   0  0  0  0  0  0  0  0  0  0  0  0
   34.6880    9.9450    8.8960 C   0  0  0  0  0  0  0  0  0  0  0  0
   34.2440   11.1500    8.3770 C   0  0  0  0  0  0  0  0  0  0  0  0
   34.5370   12.3540    8.9910 C   0  0  0  0  0  0  0  0  0  0  0  0
   35.2780   12.3600   10.1590 C   0  0  0  0  0  0  0  0  0  0  0  0
   35.7050   11.1560   10.6830 C   0  0  0  0  0  0  0  0  0  0  0  0
   35.4320    9.9530   10.0660 C   0  0  0  0  0  0  0  0  0  0  0  0
   35.9540    8.7930   10.6810 N   0  0  0  0  0  0  0  0  0  0  0  0
   35.6320   13.6170   10.8750 C   0  0  0  0  0  0  0  0  0  0  0  0
   36.3660   13.5180   11.8950 O   0  0  0  0  0  0  0  0  0  0  0  0
   35.2230   14.7120   10.4020 O   0  0  0  0  0  0  0  0  0  0  0  0
   34.7010    7.3710    6.0340 C   0  0  0  0  0  0  0  0  0  0  0  0
   33.3440    7.6160    5.4360 C   0  0  0  0  0  0  0  0  0  0  0  0
   33.0070    8.8180    4.8390 C   0  0  0  0  0  0  0  0  0  0  0  0
   31.7750    9.0010    4.2430 C   0  0  0  0  0  0  0  0  0  0  0  0
   30.8500    7.9820    4.2610 C   0  0  0  0  0  0  0  0  0  0  0  0
   31.1700    6.7860    4.8700 C   0  0  0  0  0  0  0  0  0  0  0  0
   32.4140    6.5990    5.4410 C   0  0  0  0  0  0  0  0  0  0  0  0
   35.9490    7.4110    1.9290 C   0  0  0  0  0  0  0  0  0  0  0  0
   36.7730    6.6250    1.1500 C   0  0  0  0  0  0  0  0  0  0  0  0
   36.2120    5.7660    0.2380 C   0  0  0  0  0  0  0  0  0  0  0  0
   34.8460    5.6810    0.0790 C   0  0  0  0  0  0  0  0  0  0  0  0
   34.0340    6.4860    0.8350 C   0  0  0  0  0  0  0  0  0  0  0  0
   34.5770    7.3420    1.7650 C   0  0  0  0  0  0  0  0  0  0  0  0
  3  4  1  0  0  0  0
  4  5  1  0  0  0  0
  5  6  1  0  0  0  0
  6  7  1  0  0  0  0
  7  8  1  0  0  0  0
  8  9  1  0  0  0  0
  9 10  1  0  0  0  0
 10 11  1  0  0  0  0
 11 12  1  0  0  0  0
 12 13  1  0  0  0  0
 13 14  2  0  0  0  0
 14 15  1  0  0  0  0
 15 16  2  0  0  0  0
 16 17  1  0  0  0  0
 13 18  1  0  0  0  0
 17 18  2  0  0  0  0
 18 19  1  0  0  0  0
 16 20  1  0  0  0  0
 20 21  1  0  0  0  0
 20 22  2  0  0  0  0
  7 23  1  0  0  0  0
 11 23  1  0  0  0  0
 23 24  1  0  0  0  0
 24 25  2  0  0  0  0
 25 26  1  0  0  0  0
 26 27  2  0  0  0  0
 27 28  1  0  0  0  0
 24 29  1  0  0  0  0
 28 29  2  0  0  0  0
  5 30  1  0  0  0  0
 30 31  2  0  0  0  0
  1 32  1  0  0  0  0
 31 32  1  0  0  0  0
 32 33  2  0  0  0  0
  2 34  1  0  0  0  0
 33 34  1  0  0  0  0
 30 35  1  0  0  0  0
 34 35  2  0  0  0  0
M  END
$$$$
