8CY4
  PyMOL3.1          3D                             0

 87 96  0  0  0  0  0  0  0  0999 V2000
  -32.1896    0.7899   13.8632 N   0  0  0  0  0  0  0  0  0  0  0  0
  -35.1553   -0.9720   15.2023 C   0  0  0  0  0  0  0  0  0  0  0  0
  -36.0235   -0.2709   16.0854 O   0  0  0  0  0  0  0  0  0  0  0  0
  -34.5465   -0.0462   14.1371 C   0  0  0  0  0  0  0  0  0  0  0  0
  -30.7881    0.7733   12.1038 N   0  0  0  0  0  0  0  0  0  0  0  0
  -35.3504    1.1078   13.9294 O   0  0  0  0  0  0  0  0  0  0  0  0
  -33.9342   -1.5163   15.9579 C   0  0  0  0  0  0  0  0  0  0  0  0
  -31.3064    2.7139   15.0580 N   0  0  0  0  0  0  0  0  0  0  0  0
  -33.7604   -3.4560   14.5056 O   0  0  0  0  0  0  0  0  0  0  0  0
  -33.7251   -3.0118   15.8566 C   0  0  0  0  0  0  0  0  0  0  0  0
  -29.4107    3.7024   13.9428 N   0  0  0  0  0  0  0  0  0  0  0  0
  -32.7775   -0.8255   15.4352 O   0  0  0  0  0  0  0  0  0  0  0  0
  -33.2269    0.3451   14.7883 C   0  0  0  0  0  0  0  0  0  0  0  0
  -28.4540    2.8394   12.0295 N   0  0  0  0  0  0  0  0  0  0  0  0
  -31.5322    2.6649    3.8233 O   0  0  0  0  0  0  0  0  0  0  0  0
  -31.8211    0.2077   12.6795 C   0  0  0  0  0  0  0  0  0  0  0  0
  -30.4561    1.8067   12.9668 C   0  0  0  0  0  0  0  0  0  0  0  0
  -31.3197    1.8379   14.0494 C   0  0  0  0  0  0  0  0  0  0  0  0
  -30.3240    3.6081   14.9145 C   0  0  0  0  0  0  0  0  0  0  0  0
  -29.4404    2.7978   12.9465 C   0  0  0  0  0  0  0  0  0  0  0  0
  -28.2700    1.8734   10.9591 C   0  0  0  0  0  0  0  0  0  0  0  0
  -29.0664    2.2457    9.7278 C   0  0  0  0  0  0  0  0  0  0  0  0
  -29.1762    1.0966    8.7310 C   0  0  0  0  0  0  0  0  0  0  0  0
  -29.8025    1.5013    7.4192 C   0  0  0  0  0  0  0  0  0  0  0  0
  -29.0546    2.1445    6.4443 C   0  0  0  0  0  0  0  0  0  0  0  0
  -29.6224    2.5289    5.2427 C   0  0  0  0  0  0  0  0  0  0  0  0
  -30.9632    2.2727    4.9996 C   0  0  0  0  0  0  0  0  0  0  0  0
  -31.7235    1.6266    5.9628 C   0  0  0  0  0  0  0  0  0  0  0  0
  -31.1413    1.2472    7.1596 C   0  0  0  0  0  0  0  0  0  0  0  0
   -9.6502   11.3853  -37.1198 N   0  0  0  0  0  0  0  0  0  0  0  0
   -6.6287   12.5628  -38.8801 C   0  0  0  0  0  0  0  0  0  0  0  0
   -6.8957   13.5317  -39.8881 O   0  0  0  0  0  0  0  0  0  0  0  0
   -7.5899   12.7095  -37.6962 C   0  0  0  0  0  0  0  0  0  0  0  0
  -10.3044   10.4302  -35.1909 N   0  0  0  0  0  0  0  0  0  0  0  0
   -7.9905   14.0625  -37.5196 O   0  0  0  0  0  0  0  0  0  0  0  0
   -6.9174   11.1465  -39.3924 C   0  0  0  0  0  0  0  0  0  0  0  0
  -11.8258   11.7936  -38.1205 N   0  0  0  0  0  0  0  0  0  0  0  0
   -5.5855   10.1021  -37.6588 O   0  0  0  0  0  0  0  0  0  0  0  0
   -5.8658   10.1154  -39.0545 C   0  0  0  0  0  0  0  0  0  0  0  0
  -13.6397   11.0445  -36.7233 N   0  0  0  0  0  0  0  0  0  0  0  0
   -8.1838   10.7498  -38.8177 O   0  0  0  0  0  0  0  0  0  0  0  0
   -8.7648   11.8662  -38.1748 C   0  0  0  0  0  0  0  0  0  0  0  0
  -13.3487    9.9214  -34.7323 N   0  0  0  0  0  0  0  0  0  0  0  0
  -10.1544   13.0660  -27.2094 O   0  0  0  0  0  0  0  0  0  0  0  0
   -9.2917   10.8316  -35.9189 C   0  0  0  0  0  0  0  0  0  0  0  0
  -11.4135   10.7451  -35.9672 C   0  0  0  0  0  0  0  0  0  0  0  0
  -11.0213   11.3425  -37.1529 C   0  0  0  0  0  0  0  0  0  0  0  0
  -13.1111   11.6066  -37.8137 C   0  0  0  0  0  0  0  0  0  0  0  0
  -12.8072   10.5832  -35.7727 C   0  0  0  0  0  0  0  0  0  0  0  0
  -12.5958    9.2551  -33.6822 C   0  0  0  0  0  0  0  0  0  0  0  0
  -12.3044   10.1889  -32.5298 C   0  0  0  0  0  0  0  0  0  0  0  0
  -11.1832    9.6779  -31.6320 C   0  0  0  0  0  0  0  0  0  0  0  0
  -10.9047   10.5764  -30.4518 C   0  0  0  0  0  0  0  0  0  0  0  0
  -11.7375   10.5701  -29.3418 C   0  0  0  0  0  0  0  0  0  0  0  0
  -11.4923   11.3938  -28.2571 C   0  0  0  0  0  0  0  0  0  0  0  0
  -10.3975   12.2449  -28.2705 C   0  0  0  0  0  0  0  0  0  0  0  0
   -9.5547   12.2618  -29.3722 C   0  0  0  0  0  0  0  0  0  0  0  0
   -9.8123   11.4321  -30.4494 C   0  0  0  0  0  0  0  0  0  0  0  0
   30.1323   37.1148  -17.8711 N   0  0  0  0  0  0  0  0  0  0  0  0
   32.2741   40.0500  -18.5599 C   0  0  0  0  0  0  0  0  0  0  0  0
   32.7011   40.8475  -17.4614 O   0  0  0  0  0  0  0  0  0  0  0  0
   32.1617   38.5635  -18.1905 C   0  0  0  0  0  0  0  0  0  0  0  0
   29.6404   35.0920  -18.7225 N   0  0  0  0  0  0  0  0  0  0  0  0
   33.0167   38.2319  -17.1030 O   0  0  0  0  0  0  0  0  0  0  0  0
   30.8507   40.4262  -18.9929 C   0  0  0  0  0  0  0  0  0  0  0  0
   28.8497   37.0023  -15.8093 N   0  0  0  0  0  0  0  0  0  0  0  0
   31.4393   39.8898  -21.2897 O   0  0  0  0  0  0  0  0  0  0  0  0
   30.6947   40.7720  -20.4580 C   0  0  0  0  0  0  0  0  0  0  0  0
   27.6686   34.9143  -15.5709 N   0  0  0  0  0  0  0  0  0  0  0  0
   29.9998   39.3049  -18.6622 O   0  0  0  0  0  0  0  0  0  0  0  0
   30.6988   38.4581  -17.7752 C   0  0  0  0  0  0  0  0  0  0  0  0
   27.6655   33.2447  -17.1602 N   0  0  0  0  0  0  0  0  0  0  0  0
   34.4474   28.2412  -19.7969 O   0  0  0  0  0  0  0  0  0  0  0  0
   30.3041   36.2116  -18.8853 C   0  0  0  0  0  0  0  0  0  0  0  0
   28.9879   35.2698  -17.5123 C   0  0  0  0  0  0  0  0  0  0  0  0
   29.2864   36.5110  -16.9712 C   0  0  0  0  0  0  0  0  0  0  0  0
   28.0535   36.1334  -15.1814 C   0  0  0  0  0  0  0  0  0  0  0  0
   28.1157   34.4474  -16.7498 C   0  0  0  0  0  0  0  0  0  0  0  0
   27.9715   32.6237  -18.4388 C   0  0  0  0  0  0  0  0  0  0  0  0
   29.2426   31.8013  -18.3819 C   0  0  0  0  0  0  0  0  0  0  0  0
   29.7302   31.3811  -19.7667 C   0  0  0  0  0  0  0  0  0  0  0  0
   30.9866   30.5442  -19.7649 C   0  0  0  0  0  0  0  0  0  0  0  0
   30.9229   29.1654  -19.9089 C   0  0  0  0  0  0  0  0  0  0  0  0
   32.0707   28.3924  -19.9226 C   0  0  0  0  0  0  0  0  0  0  0  0
   33.3117   28.9969  -19.7888 C   0  0  0  0  0  0  0  0  0  0  0  0
   33.3920   30.3739  -19.6431 C   0  0  0  0  0  0  0  0  0  0  0  0
   32.2355   31.1341  -19.6314 C   0  0  0  0  0  0  0  0  0  0  0  0
  2  3  1  0  0  0  0
  2  4  1  0  0  0  0
  4  6  1  0  0  0  0
  2  7  1  0  0  0  0
  7 10  1  0  0  0  0
  9 10  1  0  0  0  0
  7 12  1  0  0  0  0
  1 13  1  0  0  0  0
  4 13  1  0  0  0  0
 12 13  1  0  0  0  0
  1 16  1  0  0  0  0
  5 16  2  0  0  0  0
  5 17  1  0  0  0  0
  1 18  1  0  0  0  0
  8 18  2  0  0  0  0
 17 18  1  0  0  0  0
  8 19  1  0  0  0  0
 11 19  2  0  0  0  0
 11 20  1  0  0  0  0
 14 20  1  0  0  0  0
 17 20  2  0  0  0  0
 14 21  1  0  0  0  0
 21 22  1  0  0  0  0
 22 23  1  0  0  0  0
 23 24  1  0  0  0  0
 24 25  2  0  0  0  0
 25 26  1  0  0  0  0
 15 27  1  0  0  0  0
 26 27  2  0  0  0  0
 27 28  1  0  0  0  0
 24 29  1  0  0  0  0
 28 29  2  0  0  0  0
 31 32  1  0  0  0  0
 31 33  1  0  0  0  0
 33 35  1  0  0  0  0
 31 36  1  0  0  0  0
 36 39  1  0  0  0  0
 38 39  1  0  0  0  0
 36 41  1  0  0  0  0
 30 42  1  0  0  0  0
 33 42  1  0  0  0  0
 41 42  1  0  0  0  0
 30 45  1  0  0  0  0
 34 45  2  0  0  0  0
 34 46  1  0  0  0  0
 30 47  1  0  0  0  0
 37 47  2  0  0  0  0
 46 47  1  0  0  0  0
 37 48  1  0  0  0  0
 40 48  2  0  0  0  0
 40 49  1  0  0  0  0
 43 49  1  0  0  0  0
 46 49  2  0  0  0  0
 43 50  1  0  0  0  0
 50 51  1  0  0  0  0
 51 52  1  0  0  0  0
 52 53  1  0  0  0  0
 53 54  2  0  0  0  0
 54 55  1  0  0  0  0
 44 56  1  0  0  0  0
 55 56  2  0  0  0  0
 56 57  1  0  0  0  0
 53 58  1  0  0  0  0
 57 58  2  0  0  0  0
 60 61  1  0  0  0  0
 60 62  1  0  0  0  0
 62 64  1  0  0  0  0
 60 65  1  0  0  0  0
 65 68  1  0  0  0  0
 67 68  1  0  0  0  0
 65 70  1  0  0  0  0
 59 71  1  0  0  0  0
 62 71  1  0  0  0  0
 70 71  1  0  0  0  0
 59 74  1  0  0  0  0
 63 74  2  0  0  0  0
 63 75  1  0  0  0  0
 59 76  1  0  0  0  0
 66 76  2  0  0  0  0
 75 76  1  0  0  0  0
 66 77  1  0  0  0  0
 69 77  2  0  0  0  0
 69 78  1  0  0  0  0
 72 78  1  0  0  0  0
 75 78  2  0  0  0  0
 72 79  1  0  0  0  0
 79 80  1  0  0  0  0
 80 81  1  0  0  0  0
 81 82  1  0  0  0  0
 82 83  2  0  0  0  0
 83 84  1  0  0  0  0
 73 85  1  0  0  0  0
 84 85  2  0  0  0  0
 85 86  1  0  0  0  0
 82 87  1  0  0  0  0
 86 87  2  0  0  0  0
M  END
$$$$
