8CY4
  PyMOL3.1          3D                             0

 29 32  0  0  0  0  0  0  0  0999 V2000
   30.1323   37.1148  -17.8711 N   0  0  0  0  0  0  0  0  0  0  0  0
   32.2741   40.0500  -18.5599 C   0  0  0  0  0  0  0  0  0  0  0  0
   32.7011   40.8475  -17.4614 O   0  0  0  0  0  0  0  0  0  0  0  0
   32.1617   38.5635  -18.1905 C   0  0  0  0  0  0  0  0  0  0  0  0
   29.6404   35.0920  -18.7225 N   0  0  0  0  0  0  0  0  0  0  0  0
   33.0167   38.2319  -17.1030 O   0  0  0  0  0  0  0  0  0  0  0  0
   30.8507   40.4262  -18.9929 C   0  0  0  0  0  0  0  0  0  0  0  0
   28.8497   37.0023  -15.8093 N   0  0  0  0  0  0  0  0  0  0  0  0
   31.4393   39.8898  -21.2897 O   0  0  0  0  0  0  0  0  0  0  0  0
   30.6947   40.7720  -20.4580 C   0  0  0  0  0  0  0  0  0  0  0  0
   27.6686   34.9143  -15.5709 N   0  0  0  0  0  0  0  0  0  0  0  0
   29.9998   39.3049  -18.6622 O   0  0  0  0  0  0  0  0  0  0  0  0
   30.6988   38.4581  -17.7752 C   0  0  0  0  0  0  0  0  0  0  0  0
   27.6655   33.2447  -17.1602 N   0  0  0  0  0  0  0  0  0  0  0  0
   34.4474   28.2412  -19.7969 O   0  0  0  0  0  0  0  0  0  0  0  0
   30.3041   36.2116  -18.8853 C   0  0  0  0  0  0  0  0  0  0  0  0
   28.9879   35.2698  -17.5123 C   0  0  0  0  0  0  0  0  0  0  0  0
   29.2864   36.5110  -16.9712 C   0  0  0  0  0  0  0  0  0  0  0  0
   28.0535   36.1334  -15.1814 C   0  0  0  0  0  0  0  0  0  0  0  0
   28.1157   34.4474  -16.7498 C   0  0  0  0  0  0  0  0  0  0  0  0
   27.9715   32.6237  -18.4388 C   0  0  0  0  0  0  0  0  0  0  0  0
   29.2426   31.8013  -18.3819 C   0  0  0  0  0  0  0  0  0  0  0  0
   29.7302   31.3811  -19.7667 C   0  0  0  0  0  0  0  0  0  0  0  0
   30.9866   30.5442  -19.7649 C   0  0  0  0  0  0  0  0  0  0  0  0
   30.9229   29.1654  -19.9089 C   0  0  0  0  0  0  0  0  0  0  0  0
   32.0707   28.3924  -19.9226 C   0  0  0  0  0  0  0  0  0  0  0  0
   33.3117   28.9969  -19.7888 C   0  0  0  0  0  0  0  0  0  0  0  0
   33.3920   30.3739  -19.6431 C   0  0  0  0  0  0  0  0  0  0  0  0
   32.2355   31.1341  -19.6314 C   0  0  0  0  0  0  0  0  0  0  0  0
  2  3  1  0  0  0  0
  2  4  1  0  0  0  0
  4  6  1  0  0  0  0
  2  7  1  0  0  0  0
  7 10  1  0  0  0  0
  9 10  1  0  0  0  0
  7 12  1  0  0  0  0
  1 13  1  0  0  0  0
  4 13  1  0  0  0  0
 12 13  1  0  0  0  0
  1 16  1  0  0  0  0
  5 16  2  0  0  0  0
  5 17  1  0  0  0  0
  1 18  1  0  0  0  0
  8 18  2  0  0  0  0
 17 18  1  0  0  0  0
  8 19  1  0  0  0  0
 11 19  2  0  0  0  0
 11 20  1  0  0  0  0
 14 20  1  0  0  0  0
 17 20  2  0  0  0  0
 14 21  1  0  0  0  0
 21 22  1  0  0  0  0
 22 23  1  0  0  0  0
 23 24  1  0  0  0  0
 24 25  2  0  0  0  0
 25 26  1  0  0  0  0
 15 27  1  0  0  0  0
 26 27  2  0  0  0  0
 27 28  1  0  0  0  0
 24 29  1  0  0  0  0
 28 29  2  0  0  0  0
M  END
$$$$
