7MIG
  PyMOL3.1          3D                             0

 53 56  0  0  0  0  0  0  0  0999 V2000
  129.1770  148.5930  146.0590 C   0  0  0  0  0  0  0  0  0  0  0  0
  127.3030  150.0620  146.3470 N   0  0  0  0  0  0  0  0  0  0  0  0
  126.5970  136.5330  143.4690 O   0  0  0  0  0  0  0  0  0  0  0  0
  124.0490  138.2420  143.3920 S   0  0  0  0  0  0  0  0  0  0  0  0
  128.6250  149.8760  146.1250 C   0  0  0  0  0  0  0  0  0  0  0  0
  128.3910  147.4900  146.1680 N   0  0  0  0  0  0  0  0  0  0  0  0
  128.7060  137.8400  143.5820 O   0  0  0  0  0  0  0  0  0  0  0  0
  127.2540  137.8340  143.3780 S   0  0  0  0  0  0  0  0  0  0  0  0
  126.5280  148.9580  146.4820 C   0  0  0  0  0  0  0  0  0  0  0  0
  126.0450  144.0740  147.0190 N   0  0  0  0  0  0  0  0  0  0  0  0
  122.7490  143.1070  144.8730 O   0  0  0  0  0  0  0  0  0  0  0  0
  127.0570  147.6670  146.3760 C   0  0  0  0  0  0  0  0  0  0  0  0
  124.1130  142.8750  146.6630 N   0  0  0  0  0  0  0  0  0  0  0  0
  130.6690  148.3400  145.9270 C   0  0  0  0  0  0  0  0  0  0  0  0
  124.6750  139.9010  145.2330 N   0  0  0  0  0  0  0  0  0  0  0  0
  126.2200  146.4450  146.5050 C   0  0  0  0  0  0  0  0  0  0  0  0
  126.5490  138.9050  144.2550 N   0  0  0  0  0  0  0  0  0  0  0  0
  124.8520  146.4620  146.2040 C   0  0  0  0  0  0  0  0  0  0  0  0
  124.1000  145.2940  146.2960 C   0  0  0  0  0  0  0  0  0  0  0  0
  124.7420  144.1110  146.6650 C   0  0  0  0  0  0  0  0  0  0  0  0
  126.7580  145.2230  146.9320 C   0  0  0  0  0  0  0  0  0  0  0  0
  122.6300  140.9840  146.0520 C   0  0  0  0  0  0  0  0  0  0  0  0
  123.3570  140.0010  145.1210 C   0  0  0  0  0  0  0  0  0  0  0  0
  121.1060  140.9710  145.7670 C   0  0  0  0  0  0  0  0  0  0  0  0
  122.8340  140.5070  147.5190 C   0  0  0  0  0  0  0  0  0  0  0  0
  122.8030  139.1580  144.1600 C   0  0  0  0  0  0  0  0  0  0  0  0
  125.2210  139.0640  144.3910 C   0  0  0  0  0  0  0  0  0  0  0  0
  126.9390  138.3890  141.5980 C   0  0  0  0  0  0  0  0  0  0  0  0
  127.5800  139.6690  141.1480 C   0  0  0  0  0  0  0  0  0  0  0  0
  128.0940  138.3460  140.6270 C   0  0  0  0  0  0  0  0  0  0  0  0
  123.1560  142.4360  145.8280 C   0  0  0  0  0  0  0  0  0  0  0  0
  131.3830  149.4230  146.2230 F   0  0  0  0  0  0  0  0  0  0  0  0
  131.0310  147.3620  146.7550 F   0  0  0  0  0  0  0  0  0  0  0  0
  130.9650  147.9740  144.6890 F   0  0  0  0  0  0  0  0  0  0  0  0
  129.2660  150.7350  145.9960 H   0  0  0  0  0  0  0  0  0  0  0  0
  125.4730  149.0780  146.6770 H   0  0  0  0  0  0  0  0  0  0  0  0
  124.4110  142.2250  147.3770 H   0  0  0  0  0  0  0  0  0  0  0  0
  127.1420  139.5400  144.7700 H   0  0  0  0  0  0  0  0  0  0  0  0
  124.3790  147.3840  145.9000 H   0  0  0  0  0  0  0  0  0  0  0  0
  123.0410  145.3030  146.0860 H   0  0  0  0  0  0  0  0  0  0  0  0
  127.8020  145.1960  147.2080 H   0  0  0  0  0  0  0  0  0  0  0  0
  121.7500  139.0880  143.9300 H   0  0  0  0  0  0  0  0  0  0  0  0
  125.9530  138.1700  141.1890 H   0  0  0  0  0  0  0  0  0  0  0  0
  120.9240  141.3010  144.7440 H   0  0  0  0  0  0  0  0  0  0  0  0
  120.7210  139.9590  145.8960 H   0  0  0  0  0  0  0  0  0  0  0  0
  120.6010  141.6430  146.4610 H   0  0  0  0  0  0  0  0  0  0  0  0
  122.1480  139.6880  147.7340 H   0  0  0  0  0  0  0  0  0  0  0  0
  122.6360  141.3340  148.2010 H   0  0  0  0  0  0  0  0  0  0  0  0
  123.8610  140.1650  147.6510 H   0  0  0  0  0  0  0  0  0  0  0  0
  128.1830  140.2510  141.8460 H   0  0  0  0  0  0  0  0  0  0  0  0
  126.9990  140.2550  140.4360 H   0  0  0  0  0  0  0  0  0  0  0  0
  127.9230  138.0650  139.5880 H   0  0  0  0  0  0  0  0  0  0  0  0
  129.0440  138.0170  141.0480 H   0  0  0  0  0  0  0  0  0  0  0  0
  1  5  4  0  0  0  0
  1  6  4  0  0  0  0
  2  5  4  0  0  0  0
  2  9  4  0  0  0  0
  3  8  2  0  0  0  0
  5 35  1  0  0  0  0
  7  8  2  0  0  0  0
  9 36  1  0  0  0  0
 10 20  4  0  0  0  0
 10 21  4  0  0  0  0
  6 12  4  0  0  0  0
  9 12  4  0  0  0  0
 12 16  1  0  0  0  0
 13 37  1  0  0  0  0
  1 14  1  0  0  0  0
 14 32  1  0  0  0  0
 14 33  1  0  0  0  0
 14 34  1  0  0  0  0
 16 18  4  0  0  0  0
 16 21  4  0  0  0  0
  8 17  1  0  0  0  0
 17 38  1  0  0  0  0
 18 19  4  0  0  0  0
 18 39  1  0  0  0  0
 19 20  4  0  0  0  0
 19 40  1  0  0  0  0
 13 20  1  0  0  0  0
 21 41  1  0  0  0  0
 22 23  1  0  0  0  0
 22 25  1  0  0  0  0
 15 23  4  0  0  0  0
 22 24  1  0  0  0  0
 24 44  1  0  0  0  0
 24 45  1  0  0  0  0
 24 46  1  0  0  0  0
 25 47  1  0  0  0  0
 25 48  1  0  0  0  0
 25 49  1  0  0  0  0
  4 26  4  0  0  0  0
 23 26  4  0  0  0  0
 26 42  1  0  0  0  0
  4 27  4  0  0  0  0
 15 27  4  0  0  0  0
 17 27  1  0  0  0  0
  8 28  1  0  0  0  0
 28 29  1  0  0  0  0
 28 30  1  0  0  0  0
 28 43  1  0  0  0  0
 29 30  1  0  0  0  0
 29 50  1  0  0  0  0
 29 51  1  0  0  0  0
 30 52  1  0  0  0  0
 30 53  1  0  0  0  0
 11 31  2  0  0  0  0
 13 31  1  0  0  0  0
 22 31  1  0  0  0  0
M  END
$$$$
