7MIG
  PyMOL3.1          3D                             0

 53 56  0  0  0  0  0  0  0  0999 V2000
  185.8300  148.5840  168.9750 C   0  0  0  0  0  0  0  0  0  0  0  0
  187.7050  150.0520  168.6870 N   0  0  0  0  0  0  0  0  0  0  0  0
  188.4020  136.5240  171.5700 O   0  0  0  0  0  0  0  0  0  0  0  0
  190.9510  138.2310  171.6480 S   0  0  0  0  0  0  0  0  0  0  0  0
  186.3830  149.8670  168.9090 C   0  0  0  0  0  0  0  0  0  0  0  0
  186.6150  147.4810  168.8670 N   0  0  0  0  0  0  0  0  0  0  0  0
  186.2940  137.8320  171.4550 O   0  0  0  0  0  0  0  0  0  0  0  0
  187.7450  137.8250  171.6600 S   0  0  0  0  0  0  0  0  0  0  0  0
  188.4790  148.9480  168.5530 C   0  0  0  0  0  0  0  0  0  0  0  0
  188.9600  144.0630  168.0180 N   0  0  0  0  0  0  0  0  0  0  0  0
  192.2540  143.0950  170.1660 O   0  0  0  0  0  0  0  0  0  0  0  0
  187.9500  147.6570  168.6590 C   0  0  0  0  0  0  0  0  0  0  0  0
  190.8910  142.8630  168.3760 N   0  0  0  0  0  0  0  0  0  0  0  0
  184.3380  148.3320  169.1060 C   0  0  0  0  0  0  0  0  0  0  0  0
  190.3270  139.8900  169.8060 N   0  0  0  0  0  0  0  0  0  0  0  0
  188.7860  146.4350  168.5310 C   0  0  0  0  0  0  0  0  0  0  0  0
  188.4520  138.8950  170.7830 N   0  0  0  0  0  0  0  0  0  0  0  0
  190.1540  146.4510  168.8330 C   0  0  0  0  0  0  0  0  0  0  0  0
  190.9050  145.2830  168.7420 C   0  0  0  0  0  0  0  0  0  0  0  0
  190.2630  144.1000  168.3730 C   0  0  0  0  0  0  0  0  0  0  0  0
  188.2480  145.2130  168.1040 C   0  0  0  0  0  0  0  0  0  0  0  0
  192.3730  140.9720  168.9880 C   0  0  0  0  0  0  0  0  0  0  0  0
  191.6450  139.9900  169.9190 C   0  0  0  0  0  0  0  0  0  0  0  0
  193.8970  140.9580  169.2740 C   0  0  0  0  0  0  0  0  0  0  0  0
  192.1690  140.4940  167.5210 C   0  0  0  0  0  0  0  0  0  0  0  0
  192.1980  139.1460  170.8810 C   0  0  0  0  0  0  0  0  0  0  0  0
  189.7800  139.0540  170.6480 C   0  0  0  0  0  0  0  0  0  0  0  0
  188.0600  138.3810  173.4400 C   0  0  0  0  0  0  0  0  0  0  0  0
  187.4190  139.6610  173.8890 C   0  0  0  0  0  0  0  0  0  0  0  0
  186.9040  138.3380  174.4100 C   0  0  0  0  0  0  0  0  0  0  0  0
  191.8470  142.4240  169.2110 C   0  0  0  0  0  0  0  0  0  0  0  0
  183.6250  149.4160  168.8090 F   0  0  0  0  0  0  0  0  0  0  0  0
  183.9760  147.3540  168.2780 F   0  0  0  0  0  0  0  0  0  0  0  0
  184.0410  147.9670  170.3440 F   0  0  0  0  0  0  0  0  0  0  0  0
  185.7420  150.7270  169.0380 H   0  0  0  0  0  0  0  0  0  0  0  0
  189.5350  149.0680  168.3590 H   0  0  0  0  0  0  0  0  0  0  0  0
  190.5930  142.2130  167.6630 H   0  0  0  0  0  0  0  0  0  0  0  0
  187.8590  139.5290  170.2670 H   0  0  0  0  0  0  0  0  0  0  0  0
  190.6270  147.3730  169.1370 H   0  0  0  0  0  0  0  0  0  0  0  0
  191.9640  145.2920  168.9530 H   0  0  0  0  0  0  0  0  0  0  0  0
  187.2040  145.1860  167.8270 H   0  0  0  0  0  0  0  0  0  0  0  0
  193.2510  139.0750  171.1120 H   0  0  0  0  0  0  0  0  0  0  0  0
  189.0460  138.1620  173.8500 H   0  0  0  0  0  0  0  0  0  0  0  0
  194.0780  141.2880  170.2970 H   0  0  0  0  0  0  0  0  0  0  0  0
  194.2810  139.9460  169.1460 H   0  0  0  0  0  0  0  0  0  0  0  0
  194.4030  141.6290  168.5800 H   0  0  0  0  0  0  0  0  0  0  0  0
  192.8550  139.6740  167.3070 H   0  0  0  0  0  0  0  0  0  0  0  0
  192.3670  141.3210  166.8390 H   0  0  0  0  0  0  0  0  0  0  0  0
  191.1420  140.1530  167.3900 H   0  0  0  0  0  0  0  0  0  0  0  0
  187.9580  140.3360  174.5540 H   0  0  0  0  0  0  0  0  0  0  0  0
  186.7840  140.1480  173.1480 H   0  0  0  0  0  0  0  0  0  0  0  0
  185.9330  137.9640  174.0860 H   0  0  0  0  0  0  0  0  0  0  0  0
  187.1700  138.1090  175.4420 H   0  0  0  0  0  0  0  0  0  0  0  0
  1  5  2  0  0  0  0
  2  5  1  0  0  0  0
  1  6  1  0  0  0  0
  3  8  2  0  0  0  0
  7  8  2  0  0  0  0
  2  9  2  0  0  0  0
  6 12  2  0  0  0  0
  9 12  1  0  0  0  0
  1 14  1  0  0  0  0
 12 16  1  0  0  0  0
  8 17  1  0  0  0  0
 16 18  2  0  0  0  0
 18 19  1  0  0  0  0
 10 20  1  0  0  0  0
 13 20  1  0  0  0  0
 19 20  2  0  0  0  0
 10 21  2  0  0  0  0
 16 21  1  0  0  0  0
 15 23  1  0  0  0  0
 22 23  1  0  0  0  0
 22 24  1  0  0  0  0
 22 25  1  0  0  0  0
  4 26  1  0  0  0  0
 23 26  2  0  0  0  0
  4 27  1  0  0  0  0
 15 27  2  0  0  0  0
 17 27  1  0  0  0  0
  8 28  1  0  0  0  0
 28 29  1  0  0  0  0
 28 30  1  0  0  0  0
 29 30  1  0  0  0  0
 11 31  2  0  0  0  0
 13 31  1  0  0  0  0
 22 31  1  0  0  0  0
 14 32  1  0  0  0  0
 14 33  1  0  0  0  0
 14 34  1  0  0  0  0
  5 35  1  0  0  0  0
  9 36  1  0  0  0  0
 13 37  1  0  0  0  0
 17 38  1  0  0  0  0
 18 39  1  0  0  0  0
 19 40  1  0  0  0  0
 21 41  1  0  0  0  0
 26 42  1  0  0  0  0
 28 43  1  0  0  0  0
 24 44  1  0  0  0  0
 24 45  1  0  0  0  0
 24 46  1  0  0  0  0
 25 47  1  0  0  0  0
 25 48  1  0  0  0  0
 25 49  1  0  0  0  0
 29 50  1  0  0  0  0
 29 51  1  0  0  0  0
 30 52  1  0  0  0  0
 30 53  1  0  0  0  0
M  END
$$$$
