7Y0F
  PyMOL3.1          3D                             0

 25 26  0  0  0  0  0  0  0  0999 V2000
   20.5420    1.1260   24.6250 Cl  0  0  0  0  0  0  0  0  0  0  0  0
   24.2100   -2.6610   16.1420 C   0  0  0  0  0  0  0  0  0  0  0  0
   24.2530   -3.4060   17.4760 C   0  0  0  0  0  0  0  0  0  0  0  0
   22.9690   -4.2290   17.5900 C   0  0  0  0  0  0  0  0  0  0  0  0
   25.4740   -4.3330   17.4630 C   0  0  0  0  0  0  0  0  0  0  0  0
   25.6190   -5.2240   18.3430 O   0  0  0  0  0  0  0  0  0  0  0  0
   26.3380   -4.2140   16.5520 O   0  5  0  0  0  0  0  0  0  0  0  0
   24.3270   -2.4240   18.5560 N   0  0  0  0  0  0  0  0  0  0  0  0
   24.3820   -2.8040   20.2300 S   0  0  0  0  0  0  0  0  0  0  0  0
   25.7460   -3.0470   20.6970 O   0  0  0  0  0  0  0  0  0  0  0  0
   23.7430   -4.0830   20.5520 O   0  0  0  0  0  0  0  0  0  0  0  0
   23.6080   -1.4750   21.1950 C   0  0  0  0  0  0  0  0  0  0  0  0
   23.9810   -0.1450   21.0190 C   0  0  0  0  0  0  0  0  0  0  0  0
   23.3630    0.8660   21.7830 C   0  0  0  0  0  0  0  0  0  0  0  0
   22.3950    0.5190   22.6960 C   0  0  0  0  0  0  0  0  0  0  0  0
   22.0210   -0.8230   22.8740 C   0  0  0  0  0  0  0  0  0  0  0  0
   22.6280   -1.8170   22.1220 C   0  0  0  0  0  0  0  0  0  0  0  0
   21.7980    1.5450   23.4400 C   0  0  0  0  0  0  0  0  0  0  0  0
   22.1860    2.8600   23.2470 C   0  0  0  0  0  0  0  0  0  0  0  0
   23.1190    3.1470   22.3560 N   0  0  0  0  0  0  0  0  0  0  0  0
   23.7260    2.2210   21.6320 C   0  0  0  0  0  0  0  0  0  0  0  0
   24.7420    2.5830   20.6510 N   0  0  0  0  0  0  0  0  0  0  0  0
   25.4140    3.6480   20.6420 C   0  0  0  0  0  0  0  0  0  0  0  0
   26.3790    3.8490   19.5770 N   0  0  0  0  0  0  0  0  0  0  0  0
   25.2680    4.6720   21.6590 N   0  0  0  0  0  0  0  0  0  0  0  0
  2  3  1  0  0  0  0
  3  4  1  0  0  0  0
  3  5  1  0  0  0  0
  5  6  1  0  0  0  0
  5  7  2  0  0  0  0
  3  8  1  0  0  0  0
  8  9  1  0  0  0  0
  9 10  2  0  0  0  0
  9 11  2  0  0  0  0
  9 12  1  0  0  0  0
 12 13  2  0  0  0  0
 13 14  1  0  0  0  0
 14 15  1  0  0  0  0
 15 16  1  0  0  0  0
 12 17  1  0  0  0  0
 16 17  2  0  0  0  0
  1 18  1  0  0  0  0
 15 18  2  0  0  0  0
 18 19  1  0  0  0  0
 19 20  2  0  0  0  0
 14 21  2  0  0  0  0
 20 21  1  0  0  0  0
 21 22  1  0  0  0  0
 22 23  1  0  0  0  0
 23 24  2  0  0  0  0
 23 25  1  0  0  0  0
M  END
$$$$
