8R4U
  PyMOL3.1          3D                             0

140156  0  0  0  0  0  0  0  0999 V2000
  -28.1680  -25.0780  -30.1310 Cl  0  0  0  0  0  0  0  0  0  0  0  0
  -21.0590  -26.8690  -25.4440 C   0  0  0  0  0  0  0  0  0  0  0  0
  -22.1390  -27.7600  -25.0620 N   0  0  0  0  0  0  0  0  0  0  0  0
  -23.4310  -27.3380  -25.4540 C   0  0  0  0  0  0  0  0  0  0  0  0
  -24.4410  -28.1540  -25.1060 N   0  0  0  0  0  0  0  0  0  0  0  0
  -25.6850  -27.7670  -25.4460 C   0  0  0  0  0  0  0  0  0  0  0  0
  -25.9900  -26.6040  -26.1330 C   0  0  0  0  0  0  0  0  0  0  0  0
  -27.3520  -26.2410  -26.4970 C   0  0  0  0  0  0  0  0  0  0  0  0
  -27.5940  -25.1080  -27.1700 C   0  0  0  0  0  0  0  0  0  0  0  0
  -26.4550  -24.2050  -27.5600 C   0  0  0  0  0  0  0  0  0  0  0  0
  -26.6890  -23.1810  -28.1790 O   0  0  0  0  0  0  0  0  0  0  0  0
  -25.1660  -24.6130  -27.2100 N   0  0  0  0  0  0  0  0  0  0  0  0
  -24.0740  -23.7670  -27.6110 C   0  0  0  0  0  0  0  0  0  0  0  0
  -23.4590  -24.2340  -28.9160 C   0  0  0  0  0  0  0  0  0  0  0  0
  -24.4540  -24.8460  -29.7600 O   0  0  0  0  0  0  0  0  0  0  0  0
  -24.0100  -25.1920  -31.0850 C   0  0  0  0  0  0  0  0  0  0  0  0
  -23.3430  -24.0210  -31.8150 C   0  0  0  0  0  0  0  0  0  0  0  0
  -22.6340  -24.5350  -32.9700 N   0  0  0  0  0  0  0  0  0  0  0  0
  -22.3120  -23.4150  -30.8620 C   0  0  0  0  0  0  0  0  0  0  0  0
  -22.8640  -23.1060  -29.5750 O   0  0  0  0  0  0  0  0  0  0  0  0
  -24.9070  -25.8220  -26.4900 C   0  0  0  0  0  0  0  0  0  0  0  0
  -23.6500  -26.1920  -26.1420 N   0  0  0  0  0  0  0  0  0  0  0  0
  -28.9730  -24.7560  -27.5740 C   0  0  0  0  0  0  0  0  0  0  0  0
  -29.9190  -24.4430  -26.5920 C   0  0  0  0  0  0  0  0  0  0  0  0
  -31.2180  -24.0850  -26.9610 C   0  0  0  0  0  0  0  0  0  0  0  0
  -31.5870  -24.0290  -28.3100 C   0  0  0  0  0  0  0  0  0  0  0  0
  -30.6390  -24.3350  -29.2890 C   0  0  0  0  0  0  0  0  0  0  0  0
  -29.3440  -24.7090  -28.9200 C   0  0  0  0  0  0  0  0  0  0  0  0
  -32.9260  -23.6060  -28.6970 C   0  0  0  0  0  0  0  0  0  0  0  0
  -32.9750  -22.4140  -29.3350 N   0  0  0  0  0  0  0  0  0  0  0  0
  -34.2000  -21.9520  -29.6790 C   0  0  0  0  0  0  0  0  0  0  0  0
  -35.3890  -22.6220  -29.4410 C   0  0  0  0  0  0  0  0  0  0  0  0
  -35.3080  -23.8440  -28.7890 C   0  0  0  0  0  0  0  0  0  0  0  0
  -34.0700  -24.3320  -28.4050 C   0  0  0  0  0  0  0  0  0  0  0  0
  -34.0110  -25.4980  -27.7650 F   0  0  0  0  0  0  0  0  0  0  0  0
  -29.0720   26.5780  -28.1880 Cl  0  0  0  0  0  0  0  0  0  0  0  0
  -36.1450   28.0410  -23.3970 C   0  0  0  0  0  0  0  0  0  0  0  0
  -35.0480   28.8910  -22.9560 N   0  0  0  0  0  0  0  0  0  0  0  0
  -33.7530   28.4850  -23.3670 C   0  0  0  0  0  0  0  0  0  0  0  0
  -32.7380   29.2700  -22.9650 N   0  0  0  0  0  0  0  0  0  0  0  0
  -31.4950   28.9130  -23.3330 C   0  0  0  0  0  0  0  0  0  0  0  0
  -31.2000   27.7970  -24.0930 C   0  0  0  0  0  0  0  0  0  0  0  0
  -29.8420   27.4550  -24.4900 C   0  0  0  0  0  0  0  0  0  0  0  0
  -29.6020   26.3640  -25.2350 C   0  0  0  0  0  0  0  0  0  0  0  0
  -30.7410   25.4770  -25.6750 C   0  0  0  0  0  0  0  0  0  0  0  0
  -30.5130   24.4980  -26.3660 O   0  0  0  0  0  0  0  0  0  0  0  0
  -32.0260   25.8560  -25.2840 N   0  0  0  0  0  0  0  0  0  0  0  0
  -33.1220   25.0280  -25.7310 C   0  0  0  0  0  0  0  0  0  0  0  0
  -33.7630   25.5860  -26.9860 C   0  0  0  0  0  0  0  0  0  0  0  0
  -32.7700   26.2100  -27.8160 O   0  0  0  0  0  0  0  0  0  0  0  0
  -33.2420   26.6310  -29.1080 C   0  0  0  0  0  0  0  0  0  0  0  0
  -33.9100   25.4990  -29.8860 C   0  0  0  0  0  0  0  0  0  0  0  0
  -34.5900   26.0400  -31.0420 N   0  0  0  0  0  0  0  0  0  0  0  0
  -34.9680   24.9360  -28.9390 C   0  0  0  0  0  0  0  0  0  0  0  0
  -34.4130   24.5250  -27.6850 O   0  0  0  0  0  0  0  0  0  0  0  0
  -32.2850   27.0310  -24.4870 C   0  0  0  0  0  0  0  0  0  0  0  0
  -33.5430   27.3820  -24.1170 N   0  0  0  0  0  0  0  0  0  0  0  0
  -28.2220   26.0470  -25.6760 C   0  0  0  0  0  0  0  0  0  0  0  0
  -27.2650   25.6780  -24.7280 C   0  0  0  0  0  0  0  0  0  0  0  0
  -25.9640   25.3570  -25.1260 C   0  0  0  0  0  0  0  0  0  0  0  0
  -25.6130   25.3930  -26.4760 C   0  0  0  0  0  0  0  0  0  0  0  0
  -26.5670   25.7730  -27.4260 C   0  0  0  0  0  0  0  0  0  0  0  0
  -27.8650   26.1120  -27.0270 C   0  0  0  0  0  0  0  0  0  0  0  0
  -24.2760   24.9980  -26.8970 C   0  0  0  0  0  0  0  0  0  0  0  0
  -24.2320   23.8660  -27.6360 N   0  0  0  0  0  0  0  0  0  0  0  0
  -23.0140   23.4520  -28.0560 C   0  0  0  0  0  0  0  0  0  0  0  0
  -21.8240   24.1080  -27.7880 C   0  0  0  0  0  0  0  0  0  0  0  0
  -21.8950   25.2620  -27.0180 C   0  0  0  0  0  0  0  0  0  0  0  0
  -23.1310   25.7040  -26.5640 C   0  0  0  0  0  0  0  0  0  0  0  0
  -23.2000   26.8170  -25.8250 F   0  0  0  0  0  0  0  0  0  0  0  0
   15.1610  -19.6290  -93.7140 Cl  0  0  0  0  0  0  0  0  0  0  0  0
    8.1240  -21.5200  -98.4320 C   0  0  0  0  0  0  0  0  0  0  0  0
    9.2150  -22.4130  -98.7850 N   0  0  0  0  0  0  0  0  0  0  0  0
   10.5040  -21.9770  -98.4020 C   0  0  0  0  0  0  0  0  0  0  0  0
   11.5150  -22.8000  -98.7220 N   0  0  0  0  0  0  0  0  0  0  0  0
   12.7560  -22.4150  -98.3750 C   0  0  0  0  0  0  0  0  0  0  0  0
   13.0540  -21.2380  -97.7160 C   0  0  0  0  0  0  0  0  0  0  0  0
   14.4080  -20.8730  -97.3450 C   0  0  0  0  0  0  0  0  0  0  0  0
   14.6460  -19.7240  -96.6980 C   0  0  0  0  0  0  0  0  0  0  0  0
   13.5090  -18.8080  -96.3470 C   0  0  0  0  0  0  0  0  0  0  0  0
   13.7480  -17.7690  -95.7530 O   0  0  0  0  0  0  0  0  0  0  0  0
   12.2220  -19.2160  -96.6940 N   0  0  0  0  0  0  0  0  0  0  0  0
   11.1280  -18.3540  -96.3220 C   0  0  0  0  0  0  0  0  0  0  0  0
   10.4930  -18.7730  -95.0150 C   0  0  0  0  0  0  0  0  0  0  0  0
   11.4610  -19.3950  -94.1540 O   0  0  0  0  0  0  0  0  0  0  0  0
   11.0100  -19.6520  -92.8100 C   0  0  0  0  0  0  0  0  0  0  0  0
   10.3990  -18.4250  -92.1200 C   0  0  0  0  0  0  0  0  0  0  0  0
    9.6810  -18.8480  -90.9370 N   0  0  0  0  0  0  0  0  0  0  0  0
    9.3990  -17.8200  -93.1020 C   0  0  0  0  0  0  0  0  0  0  0  0
    9.9830  -17.5890  -94.3920 O   0  0  0  0  0  0  0  0  0  0  0  0
   11.9670  -20.4430  -97.3920 C   0  0  0  0  0  0  0  0  0  0  0  0
   10.7110  -20.8140  -97.7430 N   0  0  0  0  0  0  0  0  0  0  0  0
   16.0160  -19.3640  -96.2710 C   0  0  0  0  0  0  0  0  0  0  0  0
   16.9770  -19.0750  -97.2420 C   0  0  0  0  0  0  0  0  0  0  0  0
   18.2620  -18.6960  -96.8460 C   0  0  0  0  0  0  0  0  0  0  0  0
   18.6110  -18.6060  -95.4950 C   0  0  0  0  0  0  0  0  0  0  0  0
   17.6480  -18.9030  -94.5280 C   0  0  0  0  0  0  0  0  0  0  0  0
   16.3620  -19.2910  -94.9170 C   0  0  0  0  0  0  0  0  0  0  0  0
   19.9380  -18.1620  -95.1010 C   0  0  0  0  0  0  0  0  0  0  0  0
   19.9710  -16.9630  -94.4750 N   0  0  0  0  0  0  0  0  0  0  0  0
   21.1970  -16.5060  -94.1170 C   0  0  0  0  0  0  0  0  0  0  0  0
   22.3900  -17.1790  -94.3310 C   0  0  0  0  0  0  0  0  0  0  0  0
   22.3240  -18.4000  -94.9820 C   0  0  0  0  0  0  0  0  0  0  0  0
   21.0870  -18.8880  -95.3750 C   0  0  0  0  0  0  0  0  0  0  0  0
   21.0220  -20.0670  -96.0050 F   0  0  0  0  0  0  0  0  0  0  0  0
  -47.1110   32.4370  -95.4860 Cl  0  0  0  0  0  0  0  0  0  0  0  0
  -39.9910   33.9880 -100.1980 C   0  0  0  0  0  0  0  0  0  0  0  0
  -41.0900   34.8250 -100.6490 N   0  0  0  0  0  0  0  0  0  0  0  0
  -42.3840   34.3970 -100.2550 C   0  0  0  0  0  0  0  0  0  0  0  0
  -43.4100   35.1700 -100.6640 N   0  0  0  0  0  0  0  0  0  0  0  0
  -44.6550   34.7820 -100.3260 C   0  0  0  0  0  0  0  0  0  0  0  0
  -44.9390   33.6470  -99.5890 C   0  0  0  0  0  0  0  0  0  0  0  0
  -46.2950   33.2910  -99.2140 C   0  0  0  0  0  0  0  0  0  0  0  0
  -46.5280   32.2010  -98.4660 C   0  0  0  0  0  0  0  0  0  0  0  0
  -45.3850   31.3300  -98.0050 C   0  0  0  0  0  0  0  0  0  0  0  0
  -45.6120   30.3490  -97.3140 O   0  0  0  0  0  0  0  0  0  0  0  0
  -44.0990   31.7290  -98.3740 N   0  0  0  0  0  0  0  0  0  0  0  0
  -43.0050   30.9210  -97.9060 C   0  0  0  0  0  0  0  0  0  0  0  0
  -42.3920   31.4790  -96.6390 C   0  0  0  0  0  0  0  0  0  0  0  0
  -43.3920   32.1360  -95.8390 O   0  0  0  0  0  0  0  0  0  0  0  0
  -42.9520   32.5700  -94.5430 C   0  0  0  0  0  0  0  0  0  0  0  0
  -42.2800   31.4510  -93.7450 C   0  0  0  0  0  0  0  0  0  0  0  0
  -41.6050   32.0470  -92.6100 N   0  0  0  0  0  0  0  0  0  0  0  0
  -41.2280   30.7930  -94.6480 C   0  0  0  0  0  0  0  0  0  0  0  0
  -41.7490   30.4100  -95.9260 O   0  0  0  0  0  0  0  0  0  0  0  0
  -43.8450   32.9050  -99.1660 C   0  0  0  0  0  0  0  0  0  0  0  0
  -42.5850   33.2810  -99.5120 N   0  0  0  0  0  0  0  0  0  0  0  0
  -47.9080   31.8840  -98.0280 C   0  0  0  0  0  0  0  0  0  0  0  0
  -48.8580   31.5010  -98.9810 C   0  0  0  0  0  0  0  0  0  0  0  0
  -50.1580   31.1930  -98.5760 C   0  0  0  0  0  0  0  0  0  0  0  0
  -50.5190   31.2520  -97.2260 C   0  0  0  0  0  0  0  0  0  0  0  0
  -49.5730   31.6370  -96.2740 C   0  0  0  0  0  0  0  0  0  0  0  0
  -48.2760   31.9650  -96.6770 C   0  0  0  0  0  0  0  0  0  0  0  0
  -51.8580   30.8800  -96.8000 C   0  0  0  0  0  0  0  0  0  0  0  0
  -51.9060   29.7560  -96.0480 N   0  0  0  0  0  0  0  0  0  0  0  0
  -53.1230   29.3330  -95.6400 C   0  0  0  0  0  0  0  0  0  0  0  0
  -54.3110   29.9850  -95.9280 C   0  0  0  0  0  0  0  0  0  0  0  0
  -54.2370   31.1340  -96.7070 C   0  0  0  0  0  0  0  0  0  0  0  0
  -52.9990   31.5830  -97.1550 C   0  0  0  0  0  0  0  0  0  0  0  0
  -52.9240   32.6910  -97.9030 F   0  0  0  0  0  0  0  0  0  0  0  0
  2  3  1  0  0  0  0
  3  4  1  0  0  0  0
  4  5  2  0  0  0  0
  5  6  1  0  0  0  0
  6  7  2  0  0  0  0
  7  8  1  0  0  0  0
  8  9  2  0  0  0  0
  9 10  1  0  0  0  0
 10 11  2  0  0  0  0
 10 12  1  0  0  0  0
 12 13  1  0  0  0  0
 13 14  1  0  0  0  0
 14 15  1  0  0  0  0
 15 16  1  0  0  0  0
 16 17  1  0  0  0  0
 17 18  1  0  0  0  0
 17 19  1  0  0  0  0
 14 20  1  0  0  0  0
 19 20  1  0  0  0  0
  7 21  1  0  0  0  0
 12 21  1  0  0  0  0
  4 22  1  0  0  0  0
 21 22  2  0  0  0  0
  9 23  1  0  0  0  0
 23 24  2  0  0  0  0
 24 25  1  0  0  0  0
 25 26  2  0  0  0  0
 26 27  1  0  0  0  0
  1 28  1  0  0  0  0
 23 28  1  0  0  0  0
 27 28  2  0  0  0  0
 26 29  1  0  0  0  0
 29 30  2  0  0  0  0
 30 31  1  0  0  0  0
 31 32  2  0  0  0  0
 32 33  1  0  0  0  0
 29 34  1  0  0  0  0
 33 34  2  0  0  0  0
 34 35  1  0  0  0  0
 37 38  1  0  0  0  0
 38 39  1  0  0  0  0
 39 40  2  0  0  0  0
 40 41  1  0  0  0  0
 41 42  2  0  0  0  0
 42 43  1  0  0  0  0
 43 44  2  0  0  0  0
 44 45  1  0  0  0  0
 45 46  2  0  0  0  0
 45 47  1  0  0  0  0
 47 48  1  0  0  0  0
 48 49  1  0  0  0  0
 49 50  1  0  0  0  0
 50 51  1  0  0  0  0
 51 52  1  0  0  0  0
 52 53  1  0  0  0  0
 52 54  1  0  0  0  0
 49 55  1  0  0  0  0
 54 55  1  0  0  0  0
 42 56  1  0  0  0  0
 47 56  1  0  0  0  0
 39 57  1  0  0  0  0
 56 57  2  0  0  0  0
 44 58  1  0  0  0  0
 58 59  2  0  0  0  0
 59 60  1  0  0  0  0
 60 61  2  0  0  0  0
 61 62  1  0  0  0  0
 36 63  1  0  0  0  0
 58 63  1  0  0  0  0
 62 63  2  0  0  0  0
 61 64  1  0  0  0  0
 64 65  2  0  0  0  0
 65 66  1  0  0  0  0
 66 67  2  0  0  0  0
 67 68  1  0  0  0  0
 64 69  1  0  0  0  0
 68 69  2  0  0  0  0
 69 70  1  0  0  0  0
 72 73  1  0  0  0  0
 73 74  1  0  0  0  0
 74 75  2  0  0  0  0
 75 76  1  0  0  0  0
 76 77  2  0  0  0  0
 77 78  1  0  0  0  0
 78 79  2  0  0  0  0
 79 80  1  0  0  0  0
 80 81  2  0  0  0  0
 80 82  1  0  0  0  0
 82 83  1  0  0  0  0
 83 84  1  0  0  0  0
 84 85  1  0  0  0  0
 85 86  1  0  0  0  0
 86 87  1  0  0  0  0
 87 88  1  0  0  0  0
 87 89  1  0  0  0  0
 84 90  1  0  0  0  0
 89 90  1  0  0  0  0
 77 91  1  0  0  0  0
 82 91  1  0  0  0  0
 74 92  1  0  0  0  0
 91 92  2  0  0  0  0
 79 93  1  0  0  0  0
 93 94  2  0  0  0  0
 94 95  1  0  0  0  0
 95 96  2  0  0  0  0
 96 97  1  0  0  0  0
 71 98  1  0  0  0  0
 93 98  1  0  0  0  0
 97 98  2  0  0  0  0
 96 99  1  0  0  0  0
 99100  2  0  0  0  0
100101  1  0  0  0  0
101102  2  0  0  0  0
102103  1  0  0  0  0
 99104  1  0  0  0  0
103104  2  0  0  0  0
104105  1  0  0  0  0
107108  1  0  0  0  0
108109  1  0  0  0  0
109110  2  0  0  0  0
110111  1  0  0  0  0
111112  2  0  0  0  0
112113  1  0  0  0  0
113114  2  0  0  0  0
114115  1  0  0  0  0
115116  2  0  0  0  0
115117  1  0  0  0  0
117118  1  0  0  0  0
118119  1  0  0  0  0
119120  1  0  0  0  0
120121  1  0  0  0  0
121122  1  0  0  0  0
122123  1  0  0  0  0
122124  1  0  0  0  0
119125  1  0  0  0  0
124125  1  0  0  0  0
112126  1  0  0  0  0
117126  1  0  0  0  0
109127  1  0  0  0  0
126127  2  0  0  0  0
114128  1  0  0  0  0
128129  2  0  0  0  0
129130  1  0  0  0  0
130131  2  0  0  0  0
131132  1  0  0  0  0
106133  1  0  0  0  0
128133  1  0  0  0  0
132133  2  0  0  0  0
131134  1  0  0  0  0
134135  2  0  0  0  0
135136  1  0  0  0  0
136137  2  0  0  0  0
137138  1  0  0  0  0
134139  1  0  0  0  0
138139  2  0  0  0  0
139140  1  0  0  0  0
M  END
$$$$
