7YM8
  PyMOL3.1          3D                             0

 19 20  0  0  0  0  0  0  0  0999 V2000
  139.1980  140.0250  151.4530 C   0  0  0  0  0  0  0  0  0  0  0  0
  139.3510  140.9240  150.2300 C   0  0  0  0  0  0  0  0  0  0  0  0
  139.4960  142.2870  150.4070 C   0  0  0  0  0  0  0  0  0  0  0  0
  139.6390  143.1630  149.3350 C   0  0  0  0  0  0  0  0  0  0  0  0
  139.6350  142.6080  148.0510 C   0  0  0  0  0  0  0  0  0  0  0  0
  139.4880  141.2490  147.8750 C   0  0  0  0  0  0  0  0  0  0  0  0
  139.3390  140.3930  148.9540 C   0  0  0  0  0  0  0  0  0  0  0  0
  139.1920  138.8880  148.7410 C   0  0  0  0  0  0  0  0  0  0  0  0
  137.7540  138.4040  148.5980 C   0  0  0  0  0  0  0  0  0  0  0  0
  136.5370  139.2160  148.5260 N   0  0  0  0  0  0  0  0  0  0  0  0
  135.4030  138.3450  148.3860 C   0  0  0  0  0  0  0  0  0  0  0  0
  135.9190  136.9480  148.3580 C   0  0  0  0  0  0  0  0  0  0  0  0
  137.3490  137.0020  148.4910 N   0  0  0  0  0  0  0  0  0  0  0  0
  139.4890  140.7250  146.4470 C   0  0  0  0  0  0  0  0  0  0  0  0
  139.7670  143.3470  146.8690 O   0  0  0  0  0  0  0  0  0  0  0  0
  139.7980  144.6750  149.6280 C   0  0  0  0  0  0  0  0  0  0  0  0
  138.6790  145.5100  149.0090 C   0  0  0  0  0  0  0  0  0  0  0  0
  139.7560  144.9540  151.1290 C   0  0  0  0  0  0  0  0  0  0  0  0
  141.1490  145.1900  149.1440 C   0  0  0  0  0  0  0  0  0  0  0  0
  1  2  1  0  0  0  0
  2  3  2  0  0  0  0
  3  4  1  0  0  0  0
  4  5  2  0  0  0  0
  5  6  1  0  0  0  0
  2  7  1  0  0  0  0
  6  7  2  0  0  0  0
  7  8  1  0  0  0  0
  8  9  1  0  0  0  0
  9 10  1  0  0  0  0
 10 11  1  0  0  0  0
 11 12  1  0  0  0  0
  9 13  2  0  0  0  0
 12 13  1  0  0  0  0
  6 14  1  0  0  0  0
  5 15  1  0  0  0  0
  4 16  1  0  0  0  0
 16 17  1  0  0  0  0
 16 18  1  0  0  0  0
 16 19  1  0  0  0  0
M  END
$$$$
