7OD0
  PyMOL3.1          3D                             0

 18 19  0  0  0  0  0  0  0  0999 V2000
   51.7040  -34.6860   49.6950 C   0  0  0  0  0  0  0  0  0  0  0  0
   52.6220  -35.6850   50.2270 N   0  0  0  0  0  0  0  0  0  0  0  0
   50.6970  -36.2890   53.7470 S   0  0  0  0  0  0  0  0  0  0  0  0
   50.9500  -34.0280   50.8190 C   0  0  0  0  0  0  0  0  0  0  0  0
   49.8020  -34.9820   54.0950 N   0  0  0  0  0  0  0  0  0  0  0  0
   50.5050  -32.7100   50.7510 C   0  0  0  0  0  0  0  0  0  0  0  0
   51.0640  -36.0140   52.1970 N   0  0  0  0  0  0  0  0  0  0  0  0
   49.7870  -32.1320   51.7920 C   0  0  0  0  0  0  0  0  0  0  0  0
   49.4960  -32.8130   52.9420 C   0  0  0  0  0  0  0  0  0  0  0  0
   49.9660  -34.1420   53.0500 C   0  0  0  0  0  0  0  0  0  0  0  0
   50.6860  -34.7420   51.9660 C   0  0  0  0  0  0  0  0  0  0  0  0
   52.0720  -36.3940   50.5820 H   0  0  0  0  0  0  0  0  0  0  0  0
   53.0880  -35.2650   50.9610 H   0  0  0  0  0  0  0  0  0  0  0  0
   51.0610  -35.1100   49.0900 H   0  0  0  0  0  0  0  0  0  0  0  0
   52.1960  -34.0010   49.1940 H   0  0  0  0  0  0  0  0  0  0  0  0
   50.6650  -32.2090   49.9550 H   0  0  0  0  0  0  0  0  0  0  0  0
   49.4940  -31.2410   51.7060 H   0  0  0  0  0  0  0  0  0  0  0  0
   49.0370  -32.4080   53.6450 H   0  0  0  0  0  0  0  0  0  0  0  0
  1  2  1  0  0  0  0
  1  4  1  0  0  0  0
  3  5  1  0  0  0  0
  4  6  2  0  0  0  0
  3  7  1  0  0  0  0
  6  8  1  0  0  0  0
  8  9  2  0  0  0  0
  5 10  2  0  0  0  0
  9 10  1  0  0  0  0
  4 11  1  0  0  0  0
  7 11  2  0  0  0  0
 10 11  1  0  0  0  0
  2 12  1  0  0  0  0
  2 13  1  0  0  0  0
  1 14  1  0  0  0  0
  1 15  1  0  0  0  0
  6 16  1  0  0  0  0
  8 17  1  0  0  0  0
  9 18  1  0  0  0  0
M  END
$$$$
