7M3G
  PyMOL3.1          3D                             0

 28 31  0  0  0  0  0  0  0  0999 V2000
  186.4080  204.5560  183.8910 O   0  0  0  0  0  0  0  0  0  0  0  0
  186.8730  204.2410  182.7580 C   0  0  0  0  0  0  0  0  0  0  0  0
  188.0330  203.9590  182.4790 O   0  0  0  0  0  0  0  0  0  0  0  0
  185.7950  204.2210  181.5840 C   0  0  0  0  0  0  0  0  0  0  0  0
  186.2170  204.8500  180.3030 C   0  0  0  0  0  0  0  0  0  0  0  0
  186.5600  206.2100  180.1910 C   0  0  0  0  0  0  0  0  0  0  0  0
  186.9540  206.8000  178.9900 C   0  0  0  0  0  0  0  0  0  0  0  0
  187.0360  206.0730  177.7890 C   0  0  0  0  0  0  0  0  0  0  0  0
  187.4470  206.6900  176.5270 N   0  0  0  0  0  0  0  0  0  0  0  0
  187.2740  208.1020  176.2340 C   0  0  0  0  0  0  0  0  0  0  0  0
  186.9710  208.2460  174.7060 C   0  0  0  0  0  0  0  0  0  0  0  0
  187.5820  209.5470  174.1180 N   0  0  0  0  0  0  0  0  0  0  0  0
  187.7680  209.5650  172.5780 C   0  0  0  0  0  0  0  0  0  0  0  0
  186.4540  209.7080  171.8450 C   0  0  0  0  0  0  0  0  0  0  0  0
  186.1290  208.8500  170.7420 C   0  0  0  0  0  0  0  0  0  0  0  0
  186.9780  207.8290  170.2660 C   0  0  0  0  0  0  0  0  0  0  0  0
  186.6120  207.0400  169.2080 C   0  0  0  0  0  0  0  0  0  0  0  0
  185.3700  207.2300  168.5640 C   0  0  0  0  0  0  0  0  0  0  0  0
  184.5320  208.1990  168.9920 C   0  0  0  0  0  0  0  0  0  0  0  0
  184.8990  209.0230  170.0880 C   0  0  0  0  0  0  0  0  0  0  0  0
  183.9890  210.0150  170.4950 C   0  0  0  0  0  0  0  0  0  0  0  0
  184.3110  210.8180  171.5380 C   0  0  0  0  0  0  0  0  0  0  0  0
  185.5420  210.6620  172.2070 C   0  0  0  0  0  0  0  0  0  0  0  0
  188.7140  210.7180  172.2770 C   0  0  0  0  0  0  0  0  0  0  0  0
  187.6000  206.9980  174.1130 C   0  0  0  0  0  0  0  0  0  0  0  0
  187.5870  205.9600  175.2670 C   0  0  0  0  0  0  0  0  0  0  0  0
  186.6910  204.7130  177.8890 C   0  0  0  0  0  0  0  0  0  0  0  0
  186.2990  204.1300  179.0950 C   0  0  0  0  0  0  0  0  0  0  0  0
  1  2  4  0  0  0  0
  2  3  4  0  0  0  0
  2  4  1  0  0  0  0
  4  5  1  0  0  0  0
  5  6  4  0  0  0  0
  6  7  4  0  0  0  0
  7  8  4  0  0  0  0
  8  9  1  0  0  0  0
  8 27  4  0  0  0  0
  9 10  1  0  0  0  0
 10 11  1  0  0  0  0
 11 25  1  0  0  0  0
 11 12  1  0  0  0  0
 12 13  1  0  0  0  0
 13 14  1  0  0  0  0
 13 24  1  0  0  0  0
 14 23  4  0  0  0  0
 14 15  4  0  0  0  0
 15 16  4  0  0  0  0
 15 20  4  0  0  0  0
 16 17  4  0  0  0  0
 17 18  4  0  0  0  0
 18 19  4  0  0  0  0
 19 20  4  0  0  0  0
 20 21  4  0  0  0  0
 21 22  4  0  0  0  0
 22 23  4  0  0  0  0
  9 26  1  0  0  0  0
 25 26  1  0  0  0  0
  5 28  4  0  0  0  0
 27 28  4  0  0  0  0
M  END
$$$$
