8RQL
  PyMOL3.1          3D                             0

 20 21  0  0  0  0  0  0  0  0999 V2000
  143.6300  142.0190  170.5970 N   0  0  0  0  0  0  0  0  0  0  0  0
  140.9950  137.9590  169.7000 C   0  0  0  0  0  0  0  0  0  0  0  0
  144.6160  139.8310  170.8980 C   0  0  0  0  0  0  0  0  0  0  0  0
  144.5400  138.4540  170.8550 C   0  0  0  0  0  0  0  0  0  0  0  0
  143.3750  137.8220  170.4730 C   0  0  0  0  0  0  0  0  0  0  0  0
  142.2770  138.5910  170.1280 C   0  0  0  0  0  0  0  0  0  0  0  0
  142.3450  139.9770  170.1580 C   0  0  0  0  0  0  0  0  0  0  0  0
  143.5160  140.6070  170.5580 C   0  0  0  0  0  0  0  0  0  0  0  0
  142.8630  144.1410  171.5490 C   0  0  0  0  0  0  0  0  0  0  0  0
  144.6830  145.4300  172.2870 O   0  0  0  0  0  0  0  0  0  0  0  0
  141.8790  145.1210  171.6350 C   0  0  0  0  0  0  0  0  0  0  0  0
  144.5370  143.3660  172.9980 O   0  0  0  0  0  0  0  0  0  0  0  0
  140.7040  145.0330  170.9270 C   0  0  0  0  0  0  0  0  0  0  0  0
  140.4870  143.9530  170.1020 C   0  0  0  0  0  0  0  0  0  0  0  0
  141.4400  142.9680  169.9840 C   0  0  0  0  0  0  0  0  0  0  0  0
  142.6370  143.0170  170.7160 C   0  0  0  0  0  0  0  0  0  0  0  0
  144.1200  144.3280  172.3420 C   0  0  0  0  0  0  0  0  0  0  0  0
  140.0940  137.9340  170.6660 F   0  0  0  0  0  0  0  0  0  0  0  0
  140.4220  138.5920  168.6840 F   0  0  0  0  0  0  0  0  0  0  0  0
  141.1300  136.7020  169.3100 F   0  0  0  0  0  0  0  0  0  0  0  0
  3  4  2  0  0  0  0
  4  5  1  0  0  0  0
  2  6  1  0  0  0  0
  5  6  2  0  0  0  0
  6  7  1  0  0  0  0
  1  8  1  0  0  0  0
  3  8  1  0  0  0  0
  7  8  2  0  0  0  0
  9 11  2  0  0  0  0
 11 13  1  0  0  0  0
 13 14  2  0  0  0  0
 14 15  1  0  0  0  0
  1 16  1  0  0  0  0
  9 16  1  0  0  0  0
 15 16  2  0  0  0  0
  9 17  1  0  0  0  0
 10 17  2  0  0  0  0
 12 17  1  0  0  0  0
  2 18  1  0  0  0  0
  2 19  1  0  0  0  0
  2 20  1  0  0  0  0
M  END
$$$$
