7EKP
  PyMOL3.1          3D                             0

 21 24  0  0  0  0  0  0  0  0999 V2000
  148.5770  136.3940   91.7930 Cl  0  0  0  0  0  0  0  0  0  0  0  0
  143.6930  140.6180   89.7460 O   0  0  0  0  0  0  0  0  0  0  0  0
  143.1760  139.6030   90.0700 C   0  0  0  0  0  0  0  0  0  0  0  0
  144.0390  138.4370   90.5650 C   0  0  0  0  0  0  0  0  0  0  0  0
  143.5860  137.2130   90.9220 C   0  0  0  0  0  0  0  0  0  0  0  0
  144.5190  136.2170   91.3660 C   0  0  0  0  0  0  0  0  0  0  0  0
  145.8810  136.6790   91.3750 C   0  0  0  0  0  0  0  0  0  0  0  0
  146.8850  135.8320   91.7790 C   0  0  0  0  0  0  0  0  0  0  0  0
  146.5770  134.5280   92.1790 C   0  0  0  0  0  0  0  0  0  0  0  0
  145.2450  134.0800   92.1680 C   0  0  0  0  0  0  0  0  0  0  0  0
  144.2240  134.9380   91.7580 C   0  0  0  0  0  0  0  0  0  0  0  0
  145.7650  138.3950   90.7860 S   0  0  0  0  0  0  0  0  0  0  0  0
  141.7340  139.4720   89.9920 N   0  0  0  0  0  0  0  0  0  0  0  0
  140.9240  140.6140   89.5100 C   0  0  0  0  0  0  0  0  0  0  0  0
  140.5000  140.3770   88.0470 C   0  0  0  0  0  0  0  0  0  0  0  0
  139.7160  140.7470   90.3190 C   0  0  0  0  0  0  0  0  0  0  0  0
  138.9330  141.8320   89.7970 C   0  0  0  0  0  0  0  0  0  0  0  0
  138.5950  141.5880   88.3560 C   0  0  0  0  0  0  0  0  0  0  0  0
  139.1090  140.3880   87.9150 N   0  0  0  0  0  0  0  0  0  0  0  0
  138.5500  139.3320   88.6760 C   0  0  0  0  0  0  0  0  0  0  0  0
  138.9400  139.5160   90.1920 C   0  0  0  0  0  0  0  0  0  0  0  0
  2  3  2  0  0  0  0
  3  4  1  0  0  0  0
  3 13  1  0  0  0  0
  4  5  4  0  0  0  0
  4 12  4  0  0  0  0
  5  6  4  0  0  0  0
  6  7  4  0  0  0  0
  6 11  4  0  0  0  0
  7  8  4  0  0  0  0
  7 12  4  0  0  0  0
  1  8  1  0  0  0  0
  8  9  4  0  0  0  0
  9 10  4  0  0  0  0
 10 11  4  0  0  0  0
 13 14  1  0  0  0  0
 14 15  1  0  0  0  0
 14 16  1  0  0  0  0
 15 19  1  0  0  0  0
 16 17  1  0  0  0  0
 16 21  1  0  0  0  0
 17 18  1  0  0  0  0
 18 19  1  0  0  0  0
 19 20  1  0  0  0  0
 20 21  1  0  0  0  0
M  END
$$$$
