7EKP
  PyMOL3.1          3D                             0

 21 24  0  0  0  0  0  0  0  0999 V2000
  108.5130   94.0460   91.8240 Cl  0  0  0  0  0  0  0  0  0  0  0  0
  114.9450   93.4930   89.7730 O   0  0  0  0  0  0  0  0  0  0  0  0
  114.7680   94.6180   90.0980 C   0  0  0  0  0  0  0  0  0  0  0  0
  113.3850   95.0550   90.5940 C   0  0  0  0  0  0  0  0  0  0  0  0
  113.0340   96.3120   90.9520 C   0  0  0  0  0  0  0  0  0  0  0  0
  111.6950   96.5710   91.3970 C   0  0  0  0  0  0  0  0  0  0  0  0
  110.8630   95.3980   91.4060 C   0  0  0  0  0  0  0  0  0  0  0  0
  109.5530   95.4940   91.8110 C   0  0  0  0  0  0  0  0  0  0  0  0
  109.0380   96.7310   92.2120 C   0  0  0  0  0  0  0  0  0  0  0  0
  109.8540   97.8750   92.2020 C   0  0  0  0  0  0  0  0  0  0  0  0
  111.1840   97.7790   91.7910 C   0  0  0  0  0  0  0  0  0  0  0  0
  111.9630   94.0760   90.8150 S   0  0  0  0  0  0  0  0  0  0  0  0
  115.8590   95.5700   90.0200 N   0  0  0  0  0  0  0  0  0  0  0  0
  117.1850   95.1210   89.5360 C   0  0  0  0  0  0  0  0  0  0  0  0
  117.3880   95.5620   88.0730 C   0  0  0  0  0  0  0  0  0  0  0  0
  118.2410   95.7210   90.3450 C   0  0  0  0  0  0  0  0  0  0  0  0
  119.5120   95.3020   89.8220 C   0  0  0  0  0  0  0  0  0  0  0  0
  119.6410   95.6990   88.3810 C   0  0  0  0  0  0  0  0  0  0  0  0
  118.5210   96.3700   87.9410 N   0  0  0  0  0  0  0  0  0  0  0  0
  118.3540   97.5520   88.7030 C   0  0  0  0  0  0  0  0  0  0  0  0
  118.1470   97.1730   90.2190 C   0  0  0  0  0  0  0  0  0  0  0  0
  2  3  2  0  0  0  0
  3  4  1  0  0  0  0
  4  5  2  0  0  0  0
  5  6  1  0  0  0  0
  6  7  2  0  0  0  0
  1  8  1  0  0  0  0
  7  8  1  0  0  0  0
  8  9  2  0  0  0  0
  9 10  1  0  0  0  0
  6 11  1  0  0  0  0
 10 11  2  0  0  0  0
  4 12  1  0  0  0  0
  7 12  1  0  0  0  0
  3 13  1  0  0  0  0
 13 14  1  0  0  0  0
 14 15  1  0  0  0  0
 14 16  1  0  0  0  0
 16 17  1  0  0  0  0
 17 18  1  0  0  0  0
 15 19  1  0  0  0  0
 18 19  1  0  0  0  0
 19 20  1  0  0  0  0
 16 21  1  0  0  0  0
 20 21  1  0  0  0  0
M  END
$$$$
