7EKP
  PyMOL3.1          3D                             0

 21 24  0  0  0  0  0  0  0  0999 V2000
  116.0580  151.7850   91.7960 Cl  0  0  0  0  0  0  0  0  0  0  0  0
  110.5290  148.4520   89.7460 O   0  0  0  0  0  0  0  0  0  0  0  0
  111.3330  147.6450   90.0710 C   0  0  0  0  0  0  0  0  0  0  0  0
  112.7090  148.1040   90.5660 C   0  0  0  0  0  0  0  0  0  0  0  0
  113.7320  147.2940   90.9240 C   0  0  0  0  0  0  0  0  0  0  0  0
  114.9680  147.8720   91.3680 C   0  0  0  0  0  0  0  0  0  0  0  0
  114.9520  149.3100   91.3770 C   0  0  0  0  0  0  0  0  0  0  0  0
  116.0680  150.0020   91.7820 C   0  0  0  0  0  0  0  0  0  0  0  0
  117.2120  149.3050   92.1820 C   0  0  0  0  0  0  0  0  0  0  0  0
  117.2250  147.9000   92.1710 C   0  0  0  0  0  0  0  0  0  0  0  0
  116.0930  147.1950   91.7600 C   0  0  0  0  0  0  0  0  0  0  0  0
  113.2840  149.7320   90.7880 S   0  0  0  0  0  0  0  0  0  0  0  0
  111.0110  146.2340   89.9920 N   0  0  0  0  0  0  0  0  0  0  0  0
  109.6740  145.8180   89.5100 C   0  0  0  0  0  0  0  0  0  0  0  0
  109.7680  145.3420   88.0470 C   0  0  0  0  0  0  0  0  0  0  0  0
  109.1730  144.7110   90.3180 C   0  0  0  0  0  0  0  0  0  0  0  0
  107.8990  144.3030   89.7960 C   0  0  0  0  0  0  0  0  0  0  0  0
  108.0260  143.9060   88.3550 C   0  0  0  0  0  0  0  0  0  0  0  0
  109.3270  144.0230   87.9140 N   0  0  0  0  0  0  0  0  0  0  0  0
  110.1570  143.1640   88.6760 C   0  0  0  0  0  0  0  0  0  0  0  0
  110.1020  143.5910   90.1920 C   0  0  0  0  0  0  0  0  0  0  0  0
  2  3  2  0  0  0  0
  3  4  1  0  0  0  0
  3 13  1  0  0  0  0
  4  5  4  0  0  0  0
  4 12  4  0  0  0  0
  5  6  4  0  0  0  0
  6  7  4  0  0  0  0
  6 11  4  0  0  0  0
  7  8  4  0  0  0  0
  7 12  4  0  0  0  0
  1  8  1  0  0  0  0
  8  9  4  0  0  0  0
  9 10  4  0  0  0  0
 10 11  4  0  0  0  0
 13 14  1  0  0  0  0
 14 15  1  0  0  0  0
 14 16  1  0  0  0  0
 15 19  1  0  0  0  0
 16 17  1  0  0  0  0
 16 21  1  0  0  0  0
 17 18  1  0  0  0  0
 18 19  1  0  0  0  0
 19 20  1  0  0  0  0
 20 21  1  0  0  0  0
M  END
$$$$
