7SZD
  PyMOL3.1          3D                             0

 23 25  0  0  0  0  0  0  0  0999 V2000
   -8.9074  -18.4524   94.0860 C   0  0  0  0  0  0  0  0  0  0  0  0
   -8.9296  -19.3243   95.1963 N   0  0  0  0  0  0  0  0  0  0  0  0
   -8.2597  -18.6124   93.0734 O   0  0  0  0  0  0  0  0  0  0  0  0
   -9.8113  -17.3204   94.4346 C   0  0  0  0  0  0  0  0  0  0  0  0
   -6.9748  -21.8417   93.4978 N   0  0  0  0  0  0  0  0  0  0  0  0
  -12.7205  -13.4568   95.5740 O   0  0  0  0  0  0  0  0  0  0  0  0
  -10.2643  -17.5035   95.7287 C   0  0  0  0  0  0  0  0  0  0  0  0
  -12.8905  -14.7350   97.3686 O   0  0  0  0  0  0  0  0  0  0  0  0
  -11.1177  -16.6032   96.3302 C   0  0  0  0  0  0  0  0  0  0  0  0
   -9.1902  -21.3709   93.4334 O   0  0  0  0  0  0  0  0  0  0  0  0
  -11.5147  -15.4903   95.5925 C   0  0  0  0  0  0  0  0  0  0  0  0
   -4.8289  -22.5281   93.6105 O   0  0  0  0  0  0  0  0  0  0  0  0
  -12.4542  -14.4917   96.2227 C   0  0  0  0  0  0  0  0  0  0  0  0
   -9.7944  -19.2395   97.3579 O   0  0  0  0  0  0  0  0  0  0  0  0
  -11.0656  -15.3202   94.2832 C   0  0  0  0  0  0  0  0  0  0  0  0
  -10.2040  -16.2326   93.6844 C   0  0  0  0  0  0  0  0  0  0  0  0
   -9.6777  -18.7672   96.2541 C   0  0  0  0  0  0  0  0  0  0  0  0
   -7.9978  -20.4675   95.2768 C   0  0  0  0  0  0  0  0  0  0  0  0
   -8.1193  -21.2561   94.0009 C   0  0  0  0  0  0  0  0  0  0  0  0
   -8.3536  -21.4977   96.3660 C   0  0  0  0  0  0  0  0  0  0  0  0
   -6.5645  -19.9732   95.5162 C   0  0  0  0  0  0  0  0  0  0  0  0
   -5.5589  -21.1048   95.3683 C   0  0  0  0  0  0  0  0  0  0  0  0
   -5.7314  -21.8769   94.1009 C   0  0  0  0  0  0  0  0  0  0  0  0
  1  2  1  0  0  0  0
  1  3  2  0  0  0  0
  1  4  1  0  0  0  0
  4  7  2  0  0  0  0
  7  9  1  0  0  0  0
  9 11  2  0  0  0  0
  6 13  2  0  0  0  0
  8 13  1  0  0  0  0
 11 13  1  0  0  0  0
 11 15  1  0  0  0  0
  4 16  1  0  0  0  0
 15 16  2  0  0  0  0
  2 17  1  0  0  0  0
  7 17  1  0  0  0  0
 14 17  2  0  0  0  0
  2 18  1  0  0  0  0
  5 19  1  0  0  0  0
 10 19  2  0  0  0  0
 18 19  1  0  0  0  0
 18 20  1  0  0  0  0
 18 21  1  0  0  0  0
 21 22  1  0  0  0  0
  5 23  1  0  0  0  0
 12 23  2  0  0  0  0
 22 23  1  0  0  0  0
M  END
$$$$
