7EZP
  PyMOL3.1          3D                             0

 24 25  0  0  0  0  0  0  0  0999 V2000
  -27.5670  -10.2400   53.5060 C   0  0  0  0  0  0  0  0  0  0  0  0
  -27.6410   -6.1910   53.1160 N   0  0  0  0  0  0  0  0  0  0  0  0
  -29.1090   -3.8070   54.4020 O   0  0  0  0  0  0  0  0  0  0  0  0
  -27.3250   -9.7500   52.2400 C   0  0  0  0  0  0  0  0  0  0  0  0
  -27.0510   -7.9150   50.6760 N   0  0  0  0  0  0  0  0  0  0  0  0
  -27.2140   -3.7570   55.4400 O   0  0  0  0  0  0  0  0  0  0  0  0
  -27.3270   -8.3910   52.0120 C   0  0  0  0  0  0  0  0  0  0  0  0
  -26.2750   -6.5970   59.6510 O   0  0  0  0  0  0  0  0  0  0  0  0
  -27.5780   -7.5170   53.0640 C   0  0  0  0  0  0  0  0  0  0  0  0
  -28.2970   -7.3420   59.4460 O   0  0  0  0  0  0  0  0  0  0  0  0
  -27.8310   -8.0090   54.3160 C   0  0  0  0  0  0  0  0  0  0  0  0
  -26.6570   -6.5980   50.4360 O   0  0  0  0  0  0  0  0  0  0  0  0
  -27.8290   -9.3720   54.5390 C   0  0  0  0  0  0  0  0  0  0  0  0
  -27.1360   -8.7940   49.5970 O   0  0  0  0  0  0  0  0  0  0  0  0
  -27.8990   -5.7940   54.3340 C   0  0  0  0  0  0  0  0  0  0  0  0
  -28.0470   -6.9010   55.1360 C   0  0  0  0  0  0  0  0  0  0  0  0
  -28.0640   -4.3650   54.7570 C   0  0  0  0  0  0  0  0  0  0  0  0
  -28.3540   -6.9000   56.6150 C   0  0  0  0  0  0  0  0  0  0  0  0
  -27.0450   -6.9120   57.3910 C   0  0  0  0  0  0  0  0  0  0  0  0
  -27.2230   -6.9520   58.9110 C   0  0  0  0  0  0  0  0  0  0  0  0
  -27.5980  -11.7370   53.7750 C   0  0  0  0  0  0  0  0  0  0  0  0
  -26.2960  -12.4920   53.5530 C   0  0  0  0  0  0  0  0  0  0  0  0
  -25.1030  -11.9080   54.3180 C   0  0  0  0  0  0  0  0  0  0  0  0
  -26.5540  -13.9330   54.0000 C   0  0  0  0  0  0  0  0  0  0  0  0
  1  4  1  0  0  0  0
  4  7  2  0  0  0  0
  5  7  1  0  0  0  0
  2  9  1  0  0  0  0
  7  9  1  0  0  0  0
  9 11  2  0  0  0  0
  5 12  1  0  0  0  0
  1 13  2  0  0  0  0
 11 13  1  0  0  0  0
  5 14  2  0  0  0  0
  2 15  1  0  0  0  0
 11 16  1  0  0  0  0
 15 16  2  0  0  0  0
  3 17  2  0  0  0  0
  6 17  1  0  0  0  0
 15 17  1  0  0  0  0
 16 18  1  0  0  0  0
 18 19  1  0  0  0  0
  8 20  1  0  0  0  0
 10 20  2  0  0  0  0
 19 20  1  0  0  0  0
  1 21  1  0  0  0  0
 21 22  1  0  0  0  0
 22 23  1  0  0  0  0
 22 24  1  0  0  0  0
M  END
$$$$
