9CZ7
  PyMOL3.1          3D                             0

 30 33  0  0  0  0  0  0  0  0999 V2000
    6.4770  -44.2140  -14.9840 O   0  0  0  0  0  0  0  0  0  0  0  0
    5.5320  -44.4160  -15.8090 C   0  0  0  0  0  0  0  0  0  0  0  0
    4.3540  -44.0970  -15.5110 O   0  0  0  0  0  0  0  0  0  0  0  0
    5.8210  -45.0410  -17.1440 C   0  0  0  0  0  0  0  0  0  0  0  0
    7.2700  -45.0000  -17.3880 N   0  0  0  0  0  0  0  0  0  0  0  0
    7.6470  -43.5690  -17.7240 C   0  0  0  0  0  0  0  0  0  0  0  0
    8.7420  -43.6090  -18.5290 C   0  0  0  0  0  0  0  0  0  0  0  0
    8.6010  -44.8650  -19.3780 C   0  0  0  0  0  0  0  0  0  0  0  0
    7.6000  -45.7880  -18.5680 C   0  0  0  0  0  0  0  0  0  0  0  0
    9.8270  -45.4670  -19.5160 O   0  0  0  0  0  0  0  0  0  0  0  0
   10.1830  -45.7610  -20.8800 C   0  0  0  0  0  0  0  0  0  0  0  0
   11.7290  -45.9920  -20.9510 C   0  0  0  0  0  0  0  0  0  0  0  0
   12.0880  -47.0220  -22.0450 C   0  0  0  0  0  0  0  0  0  0  0  0
   13.6160  -47.1210  -22.3110 C   0  0  0  0  0  0  0  0  0  0  0  0
   13.8980  -46.8990  -23.8220 C   0  0  0  0  0  0  0  0  0  0  0  0
   14.7790  -45.9910  -24.1960 N   0  0  0  0  0  0  0  0  0  0  0  0
   15.0360  -45.7740  -25.4900 C   0  0  0  0  0  0  0  0  0  0  0  0
   14.3730  -46.5090  -26.4750 C   0  0  0  0  0  0  0  0  0  0  0  0
   14.6710  -46.2470  -27.9880 C   0  0  0  0  0  0  0  0  0  0  0  0
   15.3560  -44.9010  -28.1830 C   0  0  0  0  0  0  0  0  0  0  0  0
   16.4640  -44.7050  -27.1860 C   0  0  0  0  0  0  0  0  0  0  0  0
   16.0320  -44.7440  -25.8230 N   0  0  0  0  0  0  0  0  0  0  0  0
   13.4280  -47.4740  -26.1220 C   0  0  0  0  0  0  0  0  0  0  0  0
   13.1960  -47.6620  -24.7580 C   0  0  0  0  0  0  0  0  0  0  0  0
    5.2860  -46.5060  -17.1400 C   0  0  0  0  0  0  0  0  0  0  0  0
    5.9050  -47.4820  -16.3580 C   0  0  0  0  0  0  0  0  0  0  0  0
    5.4130  -48.7920  -16.3600 C   0  0  0  0  0  0  0  0  0  0  0  0
    4.3040  -49.1220  -17.1370 C   0  0  0  0  0  0  0  0  0  0  0  0
    3.6830  -48.1460  -17.9140 C   0  0  0  0  0  0  0  0  0  0  0  0
    4.1750  -46.8360  -17.9140 C   0  0  0  0  0  0  0  0  0  0  0  0
  1  2  1  0  0  0  0
  2  3  2  0  0  0  0
  2  4  1  0  0  0  0
  4  5  1  0  0  0  0
  5  6  1  0  0  0  0
  6  7  1  0  0  0  0
  7  8  1  0  0  0  0
  5  9  1  0  0  0  0
  8  9  1  0  0  0  0
  8 10  1  0  0  0  0
 10 11  1  0  0  0  0
 11 12  1  0  0  0  0
 12 13  1  0  0  0  0
 13 14  1  0  0  0  0
 14 15  1  0  0  0  0
 15 16  2  0  0  0  0
 16 17  1  0  0  0  0
 17 18  2  0  0  0  0
 18 19  1  0  0  0  0
 19 20  1  0  0  0  0
 20 21  1  0  0  0  0
 17 22  1  0  0  0  0
 21 22  1  0  0  0  0
 18 23  1  0  0  0  0
 15 24  1  0  0  0  0
 23 24  2  0  0  0  0
  4 25  1  0  0  0  0
 25 26  2  0  0  0  0
 26 27  1  0  0  0  0
 27 28  2  0  0  0  0
 28 29  1  0  0  0  0
 25 30  1  0  0  0  0
 29 30  2  0  0  0  0
M  END
$$$$
