8GKC
  PyMOL3.1          3D                             0

 66 74  0  0  0  0  0  0  0  0999 V2000
  108.5540  179.8840  129.3410 C   0  0  0  0  0  0  0  0  0  0  0  0
  108.4770  180.4710  130.7670 C   0  0  0  0  0  0  0  0  0  0  0  0
  109.6420  180.9000  131.4230 C   0  0  0  0  0  0  0  0  0  0  0  0
  109.5640  181.4310  132.7200 C   0  0  0  0  0  0  0  0  0  0  0  0
  108.3230  181.5330  133.3580 C   0  0  0  0  0  0  0  0  0  0  0  0
  107.1620  181.1060  132.7030 C   0  0  0  0  0  0  0  0  0  0  0  0
  107.2330  180.5720  131.4130 C   0  0  0  0  0  0  0  0  0  0  0  0
  105.8930  180.1140  130.7280 C   0  0  0  0  0  0  0  0  0  0  0  0
  105.4480  180.7310  129.8200 O   0  0  0  0  0  0  0  0  0  0  0  0
  105.1640  178.9130  131.2470 N   0  0  0  0  0  0  0  0  0  0  0  0
  103.8540  178.3960  130.6940 C   0  0  0  0  0  0  0  0  0  0  0  0
  102.7640  178.3070  131.7850 C   0  0  0  0  0  0  0  0  0  0  0  0
  103.3410  178.5500  133.1320 C   0  0  0  0  0  0  0  0  0  0  0  0
  104.5200  177.6760  133.3540 C   0  0  0  0  0  0  0  0  0  0  0  0
  105.6510  178.0800  132.4070 C   0  0  0  0  0  0  0  0  0  0  0  0
  101.8410  178.4510  133.5590 C   0  0  0  0  0  0  0  0  0  0  0  0
  101.0700  179.6090  133.7180 C   0  0  0  0  0  0  0  0  0  0  0  0
   99.7330  179.5110  134.1140 C   0  0  0  0  0  0  0  0  0  0  0  0
   99.1710  178.2560  134.3590 C   0  0  0  0  0  0  0  0  0  0  0  0
   99.9450  177.1040  134.2060 C   0  0  0  0  0  0  0  0  0  0  0  0
  101.2820  177.2000  133.8120 C   0  0  0  0  0  0  0  0  0  0  0  0
   97.7070  178.1230  134.7920 C   0  0  0  0  0  0  0  0  0  0  0  0
   96.6240  178.0130  135.1140 N   0  0  0  0  0  0  0  0  0  0  0  0
  108.2220  182.1160  134.7830 C   0  0  0  0  0  0  0  0  0  0  0  0
  108.0440  181.4190  135.8970 N   0  0  0  0  0  0  0  0  0  0  0  0
  108.0080  182.2910  136.9230 N   0  0  0  0  0  0  0  0  0  0  0  0
  108.1610  183.5100  136.4480 C   0  0  0  0  0  0  0  0  0  0  0  0
  108.2950  183.4210  135.1130 N   0  0  0  0  0  0  0  0  0  0  0  0
  108.1840  184.8080  137.2780 C   0  0  0  0  0  0  0  0  0  0  0  0
  110.8360  181.9060  133.4760 C   0  0  0  0  0  0  0  0  0  0  0  0
  111.6770  182.9970  132.8050 C   0  0  0  0  0  0  0  0  0  0  0  0
  112.9200  182.1110  132.9230 C   0  0  0  0  0  0  0  0  0  0  0  0
  112.0830  181.0160  133.5880 C   0  0  0  0  0  0  0  0  0  0  0  0
  148.9970   77.5680  129.0270 C   0  0  0  0  0  0  0  0  0  0  0  0
  149.0130   77.0220  130.4710 C   0  0  0  0  0  0  0  0  0  0  0  0
  147.8230   76.5960  131.0830 C   0  0  0  0  0  0  0  0  0  0  0  0
  147.8460   76.1030  132.3970 C   0  0  0  0  0  0  0  0  0  0  0  0
  149.0560   76.0360  133.0960 C   0  0  0  0  0  0  0  0  0  0  0  0
  150.2410   76.4610  132.4840 C   0  0  0  0  0  0  0  0  0  0  0  0
  150.2250   76.9570  131.1780 C   0  0  0  0  0  0  0  0  0  0  0  0
  151.5910   77.4150  130.5440 C   0  0  0  0  0  0  0  0  0  0  0  0
  152.0870   76.7790  129.6760 O   0  0  0  0  0  0  0  0  0  0  0  0
  152.2790   78.6400  131.0610 N   0  0  0  0  0  0  0  0  0  0  0  0
  153.6070   79.1600  130.5570 C   0  0  0  0  0  0  0  0  0  0  0  0
  154.6430   79.2950  131.6950 C   0  0  0  0  0  0  0  0  0  0  0  0
  154.0050   79.0820  133.0190 C   0  0  0  0  0  0  0  0  0  0  0  0
  152.8060   79.9460  133.1600 C   0  0  0  0  0  0  0  0  0  0  0  0
  151.7270   79.4980  132.1730 C   0  0  0  0  0  0  0  0  0  0  0  0
  155.4820   79.2140  133.5140 C   0  0  0  0  0  0  0  0  0  0  0  0
  156.2580   78.0720  133.7430 C   0  0  0  0  0  0  0  0  0  0  0  0
  157.5740   78.2010  134.1990 C   0  0  0  0  0  0  0  0  0  0  0  0
  158.1070   79.4700  134.4330 C   0  0  0  0  0  0  0  0  0  0  0  0
  157.3270   80.6060  134.2110 C   0  0  0  0  0  0  0  0  0  0  0  0
  156.0120   80.4800  133.7570 C   0  0  0  0  0  0  0  0  0  0  0  0
  159.5470   79.6350  134.9320 C   0  0  0  0  0  0  0  0  0  0  0  0
  160.6120   79.7690  135.3010 N   0  0  0  0  0  0  0  0  0  0  0  0
  149.0970   75.4960  134.5410 C   0  0  0  0  0  0  0  0  0  0  0  0
  149.2120   76.2270  135.6410 N   0  0  0  0  0  0  0  0  0  0  0  0
  149.2110   75.3840  136.6930 N   0  0  0  0  0  0  0  0  0  0  0  0
  149.0960   74.1500  136.2460 C   0  0  0  0  0  0  0  0  0  0  0  0
  149.0240   74.2000  134.9040 N   0  0  0  0  0  0  0  0  0  0  0  0
  149.0500   72.8770  137.1110 C   0  0  0  0  0  0  0  0  0  0  0  0
  146.5460   75.6320  133.1060 C   0  0  0  0  0  0  0  0  0  0  0  0
  145.7510   74.5100  132.4280 C   0  0  0  0  0  0  0  0  0  0  0  0
  144.4930   75.3820  132.4610 C   0  0  0  0  0  0  0  0  0  0  0  0
  145.2840   76.5070  133.1320 C   0  0  0  0  0  0  0  0  0  0  0  0
  1  2  1  0  0  0  0
  2  3  2  0  0  0  0
  3  4  1  0  0  0  0
  4  5  2  0  0  0  0
  5  6  1  0  0  0  0
  2  7  1  0  0  0  0
  6  7  2  0  0  0  0
  7  8  1  0  0  0  0
  8  9  2  0  0  0  0
  8 10  1  0  0  0  0
 10 11  1  0  0  0  0
 11 12  1  0  0  0  0
 12 13  1  0  0  0  0
 13 14  1  0  0  0  0
 10 15  1  0  0  0  0
 14 15  1  0  0  0  0
 13 16  1  0  0  0  0
 16 17  1  0  0  0  0
 17 18  2  0  0  0  0
 18 19  1  0  0  0  0
 19 20  2  0  0  0  0
 16 21  2  0  0  0  0
 20 21  1  0  0  0  0
 19 22  1  0  0  0  0
 22 23  3  0  0  0  0
  5 24  1  0  0  0  0
 24 25  2  0  0  0  0
 25 26  1  0  0  0  0
 26 27  2  0  0  0  0
 24 28  1  0  0  0  0
 27 28  1  0  0  0  0
 27 29  1  0  0  0  0
  4 30  1  0  0  0  0
 30 31  1  0  0  0  0
 31 32  1  0  0  0  0
 30 33  1  0  0  0  0
 32 33  1  0  0  0  0
 34 35  1  0  0  0  0
 35 36  2  0  0  0  0
 36 37  1  0  0  0  0
 37 38  2  0  0  0  0
 38 39  1  0  0  0  0
 35 40  1  0  0  0  0
 39 40  2  0  0  0  0
 40 41  1  0  0  0  0
 41 42  2  0  0  0  0
 41 43  1  0  0  0  0
 43 44  1  0  0  0  0
 44 45  1  0  0  0  0
 45 46  1  0  0  0  0
 46 47  1  0  0  0  0
 43 48  1  0  0  0  0
 47 48  1  0  0  0  0
 46 49  1  0  0  0  0
 49 50  1  0  0  0  0
 50 51  2  0  0  0  0
 51 52  1  0  0  0  0
 52 53  2  0  0  0  0
 49 54  2  0  0  0  0
 53 54  1  0  0  0  0
 52 55  1  0  0  0  0
 55 56  3  0  0  0  0
 38 57  1  0  0  0  0
 57 58  2  0  0  0  0
 58 59  1  0  0  0  0
 59 60  2  0  0  0  0
 57 61  1  0  0  0  0
 60 61  1  0  0  0  0
 60 62  1  0  0  0  0
 37 63  1  0  0  0  0
 63 64  1  0  0  0  0
 64 65  1  0  0  0  0
 63 66  1  0  0  0  0
 65 66  1  0  0  0  0
M  END
$$$$
