8R4X
  PyMOL3.1          3D                             0

 28 31  0  0  0  0  0  0  0  0999 V2000
  -21.2170  -20.7310   37.0940 Cl  0  0  0  0  0  0  0  0  0  0  0  0
  -32.7270  -29.6700   34.5980 Cl  0  0  0  0  0  0  0  0  0  0  0  0
  -31.9080  -22.6260   40.8280 C   0  0  0  0  0  0  0  0  0  0  0  0
  -31.7620  -22.5590   39.2820 C   0  0  0  0  0  0  0  0  0  0  0  0
  -32.3200  -23.6710   38.7460 O   0  0  0  0  0  0  0  0  0  0  0  0
  -32.2140  -23.6690   37.3550 C   0  0  0  0  0  0  0  0  0  0  0  0
  -30.6990  -23.5490   36.9510 C   0  0  0  0  0  0  0  0  0  0  0  0
  -30.0210  -22.4430   37.5380 N   0  0  0  0  0  0  0  0  0  0  0  0
  -30.2070  -22.4830   38.9350 C   0  0  0  0  0  0  0  0  0  0  0  0
  -28.6070  -22.4200   37.2290 C   0  0  0  0  0  0  0  0  0  0  0  0
  -28.3870  -22.3610   35.7470 C   0  0  0  0  0  0  0  0  0  0  0  0
  -26.8690  -22.3010   35.3950 C   0  0  0  0  0  0  0  0  0  0  0  0
  -26.2680  -21.1590   36.0560 N   0  0  0  0  0  0  0  0  0  0  0  0
  -26.4700  -21.0950   37.5160 C   0  0  0  0  0  0  0  0  0  0  0  0
  -27.9980  -21.2080   37.8700 C   0  0  0  0  0  0  0  0  0  0  0  0
  -24.9060  -20.9690   35.6460 C   0  0  0  0  0  0  0  0  0  0  0  0
  -24.6970  -20.7690   34.3350 N   0  0  0  0  0  0  0  0  0  0  0  0
  -23.4120  -20.5710   33.8050 C   0  0  0  0  0  0  0  0  0  0  0  0
  -22.3460  -20.5250   34.6890 C   0  0  0  0  0  0  0  0  0  0  0  0
  -22.6150  -20.7090   36.0440 C   0  0  0  0  0  0  0  0  0  0  0  0
  -23.8320  -20.9940   36.5970 C   0  0  0  0  0  0  0  0  0  0  0  0
  -30.0280  -24.9530   37.3190 C   0  0  0  0  0  0  0  0  0  0  0  0
  -30.7180  -26.1650   36.6120 C   0  0  0  0  0  0  0  0  0  0  0  0
  -30.7060  -26.2730   35.2230 C   0  0  0  0  0  0  0  0  0  0  0  0
  -31.3200  -27.3490   34.5860 C   0  0  0  0  0  0  0  0  0  0  0  0
  -31.8730  -28.3050   35.3670 C   0  0  0  0  0  0  0  0  0  0  0  0
  -31.8920  -28.2040   36.7610 C   0  0  0  0  0  0  0  0  0  0  0  0
  -31.2670  -27.1190   37.4090 C   0  0  0  0  0  0  0  0  0  0  0  0
  3  4  1  0  0  0  0
  4  5  1  0  0  0  0
  5  6  1  0  0  0  0
  6  7  1  0  0  0  0
  7  8  1  0  0  0  0
  4  9  1  0  0  0  0
  8  9  1  0  0  0  0
  8 10  1  0  0  0  0
 10 11  1  0  0  0  0
 11 12  1  0  0  0  0
 12 13  1  0  0  0  0
 13 14  1  0  0  0  0
 10 15  1  0  0  0  0
 14 15  1  0  0  0  0
 13 16  1  0  0  0  0
 16 17  1  0  0  0  0
 17 18  2  0  0  0  0
 18 19  1  0  0  0  0
  1 20  1  0  0  0  0
 19 20  2  0  0  0  0
 16 21  2  0  0  0  0
 20 21  1  0  0  0  0
  7 22  1  0  0  0  0
 22 23  1  0  0  0  0
 23 24  1  0  0  0  0
 24 25  2  0  0  0  0
  2 26  1  0  0  0  0
 25 26  1  0  0  0  0
 26 27  2  0  0  0  0
 23 28  2  0  0  0  0
 27 28  1  0  0  0  0
M  END
$$$$
