8R4X
  PyMOL3.1          3D                             0

 28 31  0  0  0  0  0  0  0  0999 V2000
  -58.9350    7.5350    7.5440 Cl  0  0  0  0  0  0  0  0  0  0  0  0
  -47.6830    4.1270   -1.4290 Cl  0  0  0  0  0  0  0  0  0  0  0  0
  -48.2700   10.9910    5.0000 C   0  0  0  0  0  0  0  0  0  0  0  0
  -48.4010    9.4640    5.3170 C   0  0  0  0  0  0  0  0  0  0  0  0
  -47.9000    8.7610    4.2480 O   0  0  0  0  0  0  0  0  0  0  0  0
  -47.9960    7.3850    4.4840 C   0  0  0  0  0  0  0  0  0  0  0  0
  -49.5300    7.0490    4.5530 C   0  0  0  0  0  0  0  0  0  0  0  0
  -50.1840    7.7070    5.6390 N   0  0  0  0  0  0  0  0  0  0  0  0
  -49.9120    9.1130    5.5180 C   0  0  0  0  0  0  0  0  0  0  0  0
  -51.5790    7.4120    5.6760 C   0  0  0  0  0  0  0  0  0  0  0  0
  -51.8620    5.9520    5.9030 C   0  0  0  0  0  0  0  0  0  0  0  0
  -53.3830    5.6550    6.0780 C   0  0  0  0  0  0  0  0  0  0  0  0
  -53.9700    6.4000    7.1950 N   0  0  0  0  0  0  0  0  0  0  0  0
  -53.7130    7.8370    7.0150 C   0  0  0  0  0  0  0  0  0  0  0  0
  -52.1910    8.0950    6.8830 C   0  0  0  0  0  0  0  0  0  0  0  0
  -55.3310    6.0330    7.4100 C   0  0  0  0  0  0  0  0  0  0  0  0
  -55.5230    4.7470    7.7340 N   0  0  0  0  0  0  0  0  0  0  0  0
  -56.7780    4.2260    7.9900 C   0  0  0  0  0  0  0  0  0  0  0  0
  -57.8490    5.1240    7.9560 C   0  0  0  0  0  0  0  0  0  0  0  0
  -57.5710    6.4670    7.6270 C   0  0  0  0  0  0  0  0  0  0  0  0
  -56.3470    7.0160    7.3250 C   0  0  0  0  0  0  0  0  0  0  0  0
  -50.1920    7.2780    3.1050 C   0  0  0  0  0  0  0  0  0  0  0  0
  -49.5820    6.4460    1.9330 C   0  0  0  0  0  0  0  0  0  0  0  0
  -49.0230    7.0990    0.8370 C   0  0  0  0  0  0  0  0  0  0  0  0
  -48.4850    6.3800   -0.2150 C   0  0  0  0  0  0  0  0  0  0  0  0
  -48.4700    4.9890   -0.1220 C   0  0  0  0  0  0  0  0  0  0  0  0
  -48.9750    4.3240    0.9710 C   0  0  0  0  0  0  0  0  0  0  0  0
  -49.5520    5.0730    2.0000 C   0  0  0  0  0  0  0  0  0  0  0  0
  3  4  1  0  0  0  0
  4  5  1  0  0  0  0
  5  6  1  0  0  0  0
  6  7  1  0  0  0  0
  7  8  1  0  0  0  0
  4  9  1  0  0  0  0
  8  9  1  0  0  0  0
  8 10  1  0  0  0  0
 10 11  1  0  0  0  0
 11 12  1  0  0  0  0
 12 13  1  0  0  0  0
 13 14  1  0  0  0  0
 10 15  1  0  0  0  0
 14 15  1  0  0  0  0
 13 16  1  0  0  0  0
 16 17  1  0  0  0  0
 17 18  2  0  0  0  0
 18 19  1  0  0  0  0
  1 20  1  0  0  0  0
 19 20  2  0  0  0  0
 16 21  2  0  0  0  0
 20 21  1  0  0  0  0
  7 22  1  0  0  0  0
 22 23  1  0  0  0  0
 23 24  1  0  0  0  0
 24 25  2  0  0  0  0
  2 26  1  0  0  0  0
 25 26  1  0  0  0  0
 26 27  2  0  0  0  0
 23 28  2  0  0  0  0
 27 28  1  0  0  0  0
M  END
$$$$
