8THK
  PyMOL3.1          3D                             0

 21 23  0  0  0  0  0  0  0  0999 V2000
  140.1820  142.6400  166.7140 N   0  0  0  0  0  0  0  0  0  0  0  0
  140.1790  141.0930  164.8430 C   0  0  0  0  0  0  0  0  0  0  0  0
  138.8700  140.8670  165.1220 O   0  0  0  0  0  0  0  0  0  0  0  0
  140.9010  141.8830  165.7420 C   0  0  0  0  0  0  0  0  0  0  0  0
  145.1880  138.6280  164.2000 N   0  0  0  0  0  0  0  0  0  0  0  0
  140.8650  142.9480  169.0600 O   0  0  0  0  0  0  0  0  0  0  0  0
  140.5780  140.4890  168.3160 C   0  0  0  0  0  0  0  0  0  0  0  0
  145.6180  140.4460  162.9720 N   0  0  0  0  0  0  0  0  0  0  0  0
  138.6000  142.1360  168.5380 O   0  0  0  0  0  0  0  0  0  0  0  0
  142.3010  141.8620  165.7890 C   0  0  0  0  0  0  0  0  0  0  0  0
  142.9780  140.9440  164.9760 C   0  0  0  0  0  0  0  0  0  0  0  0
  144.4630  140.7530  165.1630 C   0  0  0  0  0  0  0  0  0  0  0  0
  145.0990  139.9000  164.0940 C   0  0  0  0  0  0  0  0  0  0  0  0
  145.8690  138.1490  162.9880 C   0  0  0  0  0  0  0  0  0  0  0  0
  146.3770  139.4130  162.2850 C   0  0  0  0  0  0  0  0  0  0  0  0
  145.0720  142.1370  165.3160 C   0  0  0  0  0  0  0  0  0  0  0  0
  144.5710  142.7900  166.5990 C   0  0  0  0  0  0  0  0  0  0  0  0
  143.0430  142.8860  166.6200 C   0  0  0  0  0  0  0  0  0  0  0  0
  142.2580  140.1560  164.0830 C   0  0  0  0  0  0  0  0  0  0  0  0
  140.8800  140.2350  164.0080 C   0  0  0  0  0  0  0  0  0  0  0  0
  140.0020  142.1410  168.2560 S   0  0  0  0  0  0  0  0  0  0  0  0
  2  3  1  0  0  0  0
  1  4  1  0  0  0  0
  2  4  2  0  0  0  0
  4 10  1  0  0  0  0
 10 11  2  0  0  0  0
 11 12  1  0  0  0  0
  5 13  2  0  0  0  0
  8 13  1  0  0  0  0
 12 13  1  0  0  0  0
  5 14  1  0  0  0  0
  8 15  1  0  0  0  0
 14 15  1  0  0  0  0
 12 16  1  0  0  0  0
 16 17  1  0  0  0  0
 10 18  1  0  0  0  0
 17 18  1  0  0  0  0
 11 19  1  0  0  0  0
  2 20  1  0  0  0  0
 19 20  2  0  0  0  0
  1 21  1  0  0  0  0
  6 21  2  0  0  0  0
  7 21  1  0  0  0  0
  9 21  2  0  0  0  0
M  END
$$$$
