8D8I
  PyMOL3.1          3D                             0

 34 37  0  0  0  0  0  0  0  0999 V2000
   24.5900   -6.3740   15.4920 Cl  0  0  0  0  0  0  0  0  0  0  0  0
   27.4440   -9.7410   16.0840 C   0  0  0  0  0  0  0  0  0  0  0  0
   26.6970   -8.6310   15.9440 N   0  0  0  0  0  0  0  0  0  0  0  0
   28.4050   -9.7230   17.0780 O   0  0  0  0  0  0  0  0  0  0  0  0
   27.2480  -10.9960   15.4440 C   0  0  0  0  0  0  0  0  0  0  0  0
   25.5970   -8.8620   15.1470 N   0  0  0  0  0  0  0  0  0  0  0  0
   26.1480  -11.1480   14.6740 C   0  0  0  0  0  0  0  0  0  0  0  0
   24.0770   -9.9230   13.9470 N   0  0  0  0  0  0  0  0  0  0  0  0
   25.2570  -10.0580   14.5330 C   0  0  0  0  0  0  0  0  0  0  0  0
   23.6550   -8.6080   14.1660 N   0  0  0  0  0  0  0  0  0  0  0  0
   24.5980   -7.9770   14.8970 C   0  0  0  0  0  0  0  0  0  0  0  0
   28.8260   -8.4730   17.5690 C   0  0  0  0  0  0  0  0  0  0  0  0
   28.4300   -8.0670   18.8490 C   0  0  0  0  0  0  0  0  0  0  0  0
   28.8870   -6.8320   19.3120 C   0  0  0  0  0  0  0  0  0  0  0  0
   29.7010   -6.0400   18.5200 C   0  0  0  0  0  0  0  0  0  0  0  0
   30.0700   -6.4590   17.2580 C   0  0  0  0  0  0  0  0  0  0  0  0
   29.6400   -7.6830   16.7730 C   0  0  0  0  0  0  0  0  0  0  0  0
   27.5840   -8.9090   19.7410 C   0  0  0  0  0  0  0  0  0  0  0  0
   26.5220   -8.3510   20.4520 C   0  0  0  0  0  0  0  0  0  0  0  0
   25.7880   -9.1190   21.3390 C   0  0  0  0  0  0  0  0  0  0  0  0
   26.0850  -10.4530   21.5180 C   0  0  0  0  0  0  0  0  0  0  0  0
   27.1250  -11.0210   20.8160 C   0  0  0  0  0  0  0  0  0  0  0  0
   27.8730  -10.2600   19.9360 C   0  0  0  0  0  0  0  0  0  0  0  0
   27.9790  -11.7900   15.5860 H   0  0  0  0  0  0  0  0  0  0  0  0
   25.9140  -12.0750   14.1520 H   0  0  0  0  0  0  0  0  0  0  0  0
   28.6090   -6.4910   20.3080 H   0  0  0  0  0  0  0  0  0  0  0  0
   30.0430   -5.0810   18.9010 H   0  0  0  0  0  0  0  0  0  0  0  0
   30.6930   -5.8230   16.6340 H   0  0  0  0  0  0  0  0  0  0  0  0
   29.9370   -8.0190   15.7800 H   0  0  0  0  0  0  0  0  0  0  0  0
   26.2670   -7.3030   20.3030 H   0  0  0  0  0  0  0  0  0  0  0  0
   24.9720   -8.6620   21.8970 H   0  0  0  0  0  0  0  0  0  0  0  0
   25.5000  -11.0560   22.2110 H   0  0  0  0  0  0  0  0  0  0  0  0
   27.3630  -12.0750   20.9540 H   0  0  0  0  0  0  0  0  0  0  0  0
   28.6970  -10.7200   19.3940 H   0  0  0  0  0  0  0  0  0  0  0  0
  2  3  2  0  0  0  0
  2  4  1  0  0  0  0
  2  5  1  0  0  0  0
  3  6  1  0  0  0  0
  5  7  2  0  0  0  0
  6  9  1  0  0  0  0
  7  9  1  0  0  0  0
  8  9  2  0  0  0  0
  8 10  1  0  0  0  0
  1 11  1  0  0  0  0
  6 11  1  0  0  0  0
 10 11  2  0  0  0  0
  4 12  1  0  0  0  0
 12 13  2  0  0  0  0
 13 14  1  0  0  0  0
 14 15  2  0  0  0  0
 15 16  1  0  0  0  0
 12 17  1  0  0  0  0
 16 17  2  0  0  0  0
 13 18  1  0  0  0  0
 18 19  1  0  0  0  0
 19 20  2  0  0  0  0
 20 21  1  0  0  0  0
 21 22  2  0  0  0  0
 18 23  2  0  0  0  0
 22 23  1  0  0  0  0
  5 24  1  0  0  0  0
  7 25  1  0  0  0  0
 14 26  1  0  0  0  0
 15 27  1  0  0  0  0
 16 28  1  0  0  0  0
 17 29  1  0  0  0  0
 19 30  1  0  0  0  0
 20 31  1  0  0  0  0
 21 32  1  0  0  0  0
 22 33  1  0  0  0  0
 23 34  1  0  0  0  0
M  END
$$$$
