8I5B
  PyMOL3.1          3D                             0

 21 22  0  0  0  0  0  0  0  0999 V2000
  123.5290  123.0040  105.9380 O   0  0  0  0  0  0  0  0  0  0  0  0
  122.2280  125.3890  105.2870 N   0  0  0  0  0  0  0  0  0  0  0  0
  125.1740  123.6870  104.6330 N   0  0  0  0  0  0  0  0  0  0  0  0
  123.5260  125.3450  105.6110 C   0  0  0  0  0  0  0  0  0  0  0  0
  123.8380  125.7870  107.1040 C   0  0  0  0  0  0  0  0  0  0  0  0
  121.4500  124.7090  106.0650 C   0  0  0  0  0  0  0  0  0  0  0  0
  122.8520  125.1460  108.0680 C   0  0  0  0  0  0  0  0  0  0  0  0
  121.4580  125.2160  107.4790 C   0  0  0  0  0  0  0  0  0  0  0  0
  121.9300  125.3780  104.0200 C   0  0  0  0  0  0  0  0  0  0  0  0
  124.0390  123.9030  105.4250 C   0  0  0  0  0  0  0  0  0  0  0  0
  122.1880  124.0820  103.2670 C   0  0  0  0  0  0  0  0  0  0  0  0
  121.8850  124.3040  101.7900 C   0  0  0  0  0  0  0  0  0  0  0  0
  125.6760  122.3870  104.4330 C   0  0  0  0  0  0  0  0  0  0  0  0
  123.1490  124.3100  100.9460 C   0  0  0  0  0  0  0  0  0  0  0  0
  126.0220  121.5930  105.4810 C   0  0  0  0  0  0  0  0  0  0  0  0
  125.8100  121.9930  103.1620 C   0  0  0  0  0  0  0  0  0  0  0  0
  126.5070  120.3320  105.2560 C   0  0  0  0  0  0  0  0  0  0  0  0
  126.2870  120.7370  102.9320 C   0  0  0  0  0  0  0  0  0  0  0  0
  125.8690  122.0920  106.8940 C   0  0  0  0  0  0  0  0  0  0  0  0
  125.4080  122.9630  102.0550 C   0  0  0  0  0  0  0  0  0  0  0  0
  126.6210  119.9040  103.9730 C   0  0  0  0  0  0  0  0  0  0  0  0
  2  4  1  0  0  0  0
  4  5  1  0  0  0  0
  2  6  1  0  0  0  0
  5  7  1  0  0  0  0
  6  8  1  0  0  0  0
  7  8  1  0  0  0  0
  2  9  1  0  0  0  0
  1 10  2  0  0  0  0
  3 10  1  0  0  0  0
  4 10  1  0  0  0  0
  9 11  1  0  0  0  0
 11 12  1  0  0  0  0
  3 13  1  0  0  0  0
 12 14  1  0  0  0  0
 13 15  2  0  0  0  0
 13 16  1  0  0  0  0
 15 17  1  0  0  0  0
 16 18  2  0  0  0  0
 15 19  1  0  0  0  0
 16 20  1  0  0  0  0
 17 21  2  0  0  0  0
 18 21  1  0  0  0  0
M  END
$$$$
