8TAO
  PyMOL3.1          3D                             0

 28 31  0  0  0  0  0  0  0  0999 V2000
  191.9770  205.0580  259.4340 C   0  0  0  0  0  0  0  0  0  0  0  0
  192.8510  204.0950  259.9130 C   0  0  0  0  0  0  0  0  0  0  0  0
  193.2220  203.0320  259.1040 C   0  0  0  0  0  0  0  0  0  0  0  0
  192.7170  202.9320  257.8170 C   0  0  0  0  0  0  0  0  0  0  0  0
  191.8440  203.8960  257.3380 C   0  0  0  0  0  0  0  0  0  0  0  0
  191.4730  204.9590  258.1460 C   0  0  0  0  0  0  0  0  0  0  0  0
  193.1250  201.7610  256.9230 C   0  0  0  0  0  0  0  0  0  0  0  0
  192.8530  201.6310  255.6230 N   0  0  0  0  0  0  0  0  0  0  0  0
  193.3950  200.4460  255.1990 N   0  0  0  0  0  0  0  0  0  0  0  0
  193.9950  199.8410  256.2030 C   0  0  0  0  0  0  0  0  0  0  0  0
  193.8480  200.6410  257.3080 C   0  0  0  0  0  0  0  0  0  0  0  0
  194.6950  198.5680  256.1860 N   0  0  0  0  0  0  0  0  0  0  0  0
  196.1250  198.5480  255.9320 C   0  0  0  0  0  0  0  0  0  0  0  0
  196.7030  199.5640  255.7410 O   0  0  0  0  0  0  0  0  0  0  0  0
  196.8870  197.2240  255.9080 C   0  0  0  0  0  0  0  0  0  0  0  0
  197.5330  196.8210  254.7510 C   0  0  0  0  0  0  0  0  0  0  0  0
  198.2260  195.6210  254.7260 C   0  0  0  0  0  0  0  0  0  0  0  0
  198.2730  194.8250  255.8600 C   0  0  0  0  0  0  0  0  0  0  0  0
  197.6280  195.2290  257.0160 C   0  0  0  0  0  0  0  0  0  0  0  0
  196.9340  196.4290  257.0420 C   0  0  0  0  0  0  0  0  0  0  0  0
  197.6800  194.3520  258.2650 C   0  0  0  0  0  0  0  0  0  0  0  0
  197.7190  193.7010  259.1910 N   0  0  0  0  0  0  0  0  0  0  0  0
  193.2880  199.9760  253.8260 C   0  0  0  0  0  0  0  0  0  0  0  0
  194.2590  199.1720  253.2520 C   0  0  0  0  0  0  0  0  0  0  0  0
  194.1280  198.7440  251.9400 C   0  0  0  0  0  0  0  0  0  0  0  0
  193.0260  199.1240  251.1940 C   0  0  0  0  0  0  0  0  0  0  0  0
  192.0570  199.9310  251.7640 C   0  0  0  0  0  0  0  0  0  0  0  0
  192.1890  200.3560  253.0760 C   0  0  0  0  0  0  0  0  0  0  0  0
  1  2  1  0  0  0  0
  2  3  2  0  0  0  0
  3  4  1  0  0  0  0
  4  5  2  0  0  0  0
  1  6  2  0  0  0  0
  5  6  1  0  0  0  0
  4  7  1  0  0  0  0
  7  8  2  0  0  0  0
  8  9  1  0  0  0  0
  9 10  1  0  0  0  0
  7 11  1  0  0  0  0
 10 11  2  0  0  0  0
 10 12  1  0  0  0  0
 12 13  1  0  0  0  0
 13 14  2  0  0  0  0
 13 15  1  0  0  0  0
 15 16  2  0  0  0  0
 16 17  1  0  0  0  0
 17 18  2  0  0  0  0
 18 19  1  0  0  0  0
 15 20  1  0  0  0  0
 19 20  2  0  0  0  0
 19 21  1  0  0  0  0
 21 22  3  0  0  0  0
  9 23  1  0  0  0  0
 23 24  1  0  0  0  0
 24 25  2  0  0  0  0
 25 26  1  0  0  0  0
 26 27  2  0  0  0  0
 23 28  2  0  0  0  0
 27 28  1  0  0  0  0
M  END
$$$$
