8TZ1
  PyMOL3.1          3D                             0

 29 30  0  0  0  0  0  0  0  0999 V2000
  120.8900  139.3020  139.7980 C   0  0  0  0  0  0  0  0  0  0  0  0
  120.9830  137.9540  140.2370 O   0  0  0  0  0  0  0  0  0  0  0  0
  121.3690  139.3710  138.3540 C   0  0  0  0  0  0  0  0  0  0  0  0
  122.3120  138.5390  138.1720 O   0  0  0  0  0  0  0  0  0  0  0  0
  120.1440  138.8850  137.3370 C   0  0  0  0  0  0  0  0  0  0  0  0
  119.1970  140.0520  137.0640 O   0  0  0  0  0  0  0  0  0  0  0  0
  120.6940  138.5540  136.3150 C   0  0  0  0  0  0  0  0  0  0  0  0
  120.7740  139.7770  135.3700 O   0  0  0  0  0  0  0  0  0  0  0  0
  122.1610  138.0960  136.7510 C   0  0  0  0  0  0  0  0  0  0  0  0
  122.2870  136.7750  136.6670 N   0  0  0  0  0  0  0  0  0  0  0  0
  122.3700  136.0690  135.4980 N   0  0  0  0  0  0  0  0  0  0  0  0
  122.4860  134.8190  135.8000 C   0  0  0  0  0  0  0  0  0  0  0  0
  122.8550  132.2990  135.2970 N   0  0  0  0  0  0  0  0  0  0  0  0
  122.5180  133.8260  133.6290 O   0  0  0  0  0  0  0  0  0  0  0  0
  122.4810  134.7130  137.1420 N   0  0  0  0  0  0  0  0  0  0  0  0
  122.3560  135.9460  137.6570 C   0  0  0  0  0  0  0  0  0  0  0  0
  122.6130  133.6370  134.7920 C   0  0  0  0  0  0  0  0  0  0  0  0
  122.9410  131.5280  134.6560 H   0  0  0  0  0  0  0  0  0  0  0  0
  122.9350  132.1430  136.2890 H   0  0  0  0  0  0  0  0  0  0  0  0
  121.1660  139.5140  134.5590 H   0  0  0  0  0  0  0  0  0  0  0  0
  118.4350  139.7400  136.5830 H   0  0  0  0  0  0  0  0  0  0  0  0
  121.9190  137.6880  140.2860 H   0  0  0  0  0  0  0  0  0  0  0  0
  122.3230  136.1910  138.6790 H   0  0  0  0  0  0  0  0  0  0  0  0
  122.9130  138.5810  136.1220 H   0  0  0  0  0  0  0  0  0  0  0  0
  120.1530  137.7210  135.8270 H   0  0  0  0  0  0  0  0  0  0  0  0
  119.6050  138.0540  137.7800 H   0  0  0  0  0  0  0  0  0  0  0  0
  121.6800  140.3370  138.1080 H   0  0  0  0  0  0  0  0  0  0  0  0
  119.8320  139.6360  139.8570 H   0  0  0  0  0  0  0  0  0  0  0  0
  121.5220  139.9410  140.4240 H   0  0  0  0  0  0  0  0  0  0  0  0
  1  2  1  0  0  0  0
  1  3  1  0  0  0  0
  3  4  1  0  0  0  0
  3  5  1  0  0  0  0
  5  6  1  0  0  0  0
  5  7  1  0  0  0  0
  7  8  1  0  0  0  0
  4  9  1  0  0  0  0
  7  9  1  0  0  0  0
  9 10  1  0  0  0  0
 10 11  1  0  0  0  0
 11 12  2  0  0  0  0
 12 15  1  0  0  0  0
 10 16  1  0  0  0  0
 15 16  2  0  0  0  0
 12 17  1  0  0  0  0
 13 17  1  0  0  0  0
 14 17  2  0  0  0  0
 13 18  1  0  0  0  0
 13 19  1  0  0  0  0
  8 20  1  0  0  0  0
  6 21  1  0  0  0  0
  2 22  1  0  0  0  0
 16 23  1  0  0  0  0
  9 24  1  0  0  0  0
  7 25  1  0  0  0  0
  5 26  1  0  0  0  0
  3 27  1  0  0  0  0
  1 28  1  0  0  0  0
  1 29  1  0  0  0  0
M  END
$$$$
