8TZ1
  PyMOL3.1          3D                             0

 87 90  0  0  0  0  0  0  0  0999 V2000
  147.8700  152.7430  139.7680 C   0  0  0  0  0  0  0  0  0  0  0  0
  146.6580  153.3380  140.2100 O   0  0  0  0  0  0  0  0  0  0  0  0
  147.6870  152.2950  138.3240 C   0  0  0  0  0  0  0  0  0  0  0  0
  146.4940  151.8970  138.1440 O   0  0  0  0  0  0  0  0  0  0  0  0
  147.8800  153.5990  137.3080 C   0  0  0  0  0  0  0  0  0  0  0  0
  149.3640  153.8330  137.0330 O   0  0  0  0  0  0  0  0  0  0  0  0
  147.3160  153.2900  136.2860 C   0  0  0  0  0  0  0  0  0  0  0  0
  148.3320  152.6080  135.3390 O   0  0  0  0  0  0  0  0  0  0  0  0
  146.1840  152.2510  136.7240 C   0  0  0  0  0  0  0  0  0  0  0  0
  144.9780  152.8050  136.6420 N   0  0  0  0  0  0  0  0  0  0  0  0
  144.3240  153.0880  135.4740 N   0  0  0  0  0  0  0  0  0  0  0  0
  143.1850  153.6150  135.7790 C   0  0  0  0  0  0  0  0  0  0  0  0
  140.8190  154.5610  135.2800 N   0  0  0  0  0  0  0  0  0  0  0  0
  142.3060  154.0870  133.6090 O   0  0  0  0  0  0  0  0  0  0  0  0
  143.0980  153.6710  137.1210 N   0  0  0  0  0  0  0  0  0  0  0  0
  144.2280  153.1600  137.6330 C   0  0  0  0  0  0  0  0  0  0  0  0
  142.0970  154.0990  134.7730 C   0  0  0  0  0  0  0  0  0  0  0  0
  140.1080  154.8740  134.6410 H   0  0  0  0  0  0  0  0  0  0  0  0
  140.6460  154.5690  136.2720 H   0  0  0  0  0  0  0  0  0  0  0  0
  147.9060  152.4020  134.5290 H   0  0  0  0  0  0  0  0  0  0  0  0
  149.4760  154.6490  136.5520 H   0  0  0  0  0  0  0  0  0  0  0  0
  145.9580  152.6620  140.2590 H   0  0  0  0  0  0  0  0  0  0  0  0
  144.4580  153.0650  138.6550 H   0  0  0  0  0  0  0  0  0  0  0  0
  146.2250  151.3580  136.0940 H   0  0  0  0  0  0  0  0  0  0  0  0
  146.8660  154.1760  135.8000 H   0  0  0  0  0  0  0  0  0  0  0  0
  147.4320  154.4820  137.7520 H   0  0  0  0  0  0  0  0  0  0  0  0
  148.3660  151.5410  138.0760 H   0  0  0  0  0  0  0  0  0  0  0  0
  148.6900  153.4900  139.8260 H   0  0  0  0  0  0  0  0  0  0  0  0
  148.1070  151.8750  140.3930 H   0  0  0  0  0  0  0  0  0  0  0  0
  145.9240  122.6460  139.7720 C   0  0  0  0  0  0  0  0  0  0  0  0
  147.0410  123.4040  140.2140 O   0  0  0  0  0  0  0  0  0  0  0  0
  145.6260  123.0250  138.3280 C   0  0  0  0  0  0  0  0  0  0  0  0
  145.8720  124.2580  138.1460 O   0  0  0  0  0  0  0  0  0  0  0  0
  146.6630  122.2100  137.3130 C   0  0  0  0  0  0  0  0  0  0  0  0
  146.1310  120.8050  137.0400 O   0  0  0  0  0  0  0  0  0  0  0  0
  146.6750  122.8520  136.2910 C   0  0  0  0  0  0  0  0  0  0  0  0
  145.5800  122.3070  135.3440 O   0  0  0  0  0  0  0  0  0  0  0  0
  146.3340  124.3500  136.7270 C   0  0  0  0  0  0  0  0  0  0  0  0
  147.4130  125.1230  136.6440 N   0  0  0  0  0  0  0  0  0  0  0  0
  147.9840  125.5490  135.4760 N   0  0  0  0  0  0  0  0  0  0  0  0
  149.0070  126.2770  135.7810 C   0  0  0  0  0  0  0  0  0  0  0  0
  151.0020  127.8620  135.2810 N   0  0  0  0  0  0  0  0  0  0  0  0
  149.8540  126.8040  133.6110 O   0  0  0  0  0  0  0  0  0  0  0  0
  149.0980  126.3260  137.1230 N   0  0  0  0  0  0  0  0  0  0  0  0
  148.0930  125.5990  137.6350 C   0  0  0  0  0  0  0  0  0  0  0  0
  149.9670  126.9810  134.7750 C   0  0  0  0  0  0  0  0  0  0  0  0
  151.6260  128.3230  134.6420 H   0  0  0  0  0  0  0  0  0  0  0  0
  151.0940  128.0090  136.2730 H   0  0  0  0  0  0  0  0  0  0  0  0
  145.6130  122.7780  134.5330 H   0  0  0  0  0  0  0  0  0  0  0  0
  146.7840  120.3020  136.5600 H   0  0  0  0  0  0  0  0  0  0  0  0
  146.8010  124.3470  140.2620 H   0  0  0  0  0  0  0  0  0  0  0  0
  147.8960  125.4480  138.6570 H   0  0  0  0  0  0  0  0  0  0  0  0
  145.5390  124.7570  136.0960 H   0  0  0  0  0  0  0  0  0  0  0  0
  147.6680  122.8030  135.8050 H   0  0  0  0  0  0  0  0  0  0  0  0
  147.6520  122.1620  137.7580 H   0  0  0  0  0  0  0  0  0  0  0  0
  144.6350  122.8090  138.0790 H   0  0  0  0  0  0  0  0  0  0  0  0
  146.1660  121.5640  139.8320 H   0  0  0  0  0  0  0  0  0  0  0  0
  145.0520  122.8710  140.3970 H   0  0  0  0  0  0  0  0  0  0  0  0
  120.8900  139.3020  139.7980 C   0  0  0  0  0  0  0  0  0  0  0  0
  120.9830  137.9540  140.2370 O   0  0  0  0  0  0  0  0  0  0  0  0
  121.3690  139.3710  138.3540 C   0  0  0  0  0  0  0  0  0  0  0  0
  122.3120  138.5390  138.1720 O   0  0  0  0  0  0  0  0  0  0  0  0
  120.1440  138.8850  137.3370 C   0  0  0  0  0  0  0  0  0  0  0  0
  119.1970  140.0520  137.0640 O   0  0  0  0  0  0  0  0  0  0  0  0
  120.6940  138.5540  136.3150 C   0  0  0  0  0  0  0  0  0  0  0  0
  120.7740  139.7770  135.3700 O   0  0  0  0  0  0  0  0  0  0  0  0
  122.1610  138.0960  136.7510 C   0  0  0  0  0  0  0  0  0  0  0  0
  122.2870  136.7750  136.6670 N   0  0  0  0  0  0  0  0  0  0  0  0
  122.3700  136.0690  135.4980 N   0  0  0  0  0  0  0  0  0  0  0  0
  122.4860  134.8190  135.8000 C   0  0  0  0  0  0  0  0  0  0  0  0
  122.8550  132.2990  135.2970 N   0  0  0  0  0  0  0  0  0  0  0  0
  122.5180  133.8260  133.6290 O   0  0  0  0  0  0  0  0  0  0  0  0
  122.4810  134.7130  137.1420 N   0  0  0  0  0  0  0  0  0  0  0  0
  122.3560  135.9460  137.6570 C   0  0  0  0  0  0  0  0  0  0  0  0
  122.6130  133.6370  134.7920 C   0  0  0  0  0  0  0  0  0  0  0  0
  122.9410  131.5280  134.6560 H   0  0  0  0  0  0  0  0  0  0  0  0
  122.9350  132.1430  136.2890 H   0  0  0  0  0  0  0  0  0  0  0  0
  121.1660  139.5140  134.5590 H   0  0  0  0  0  0  0  0  0  0  0  0
  118.4350  139.7400  136.5830 H   0  0  0  0  0  0  0  0  0  0  0  0
  121.9190  137.6880  140.2860 H   0  0  0  0  0  0  0  0  0  0  0  0
  122.3230  136.1910  138.6790 H   0  0  0  0  0  0  0  0  0  0  0  0
  122.9130  138.5810  136.1220 H   0  0  0  0  0  0  0  0  0  0  0  0
  120.1530  137.7210  135.8270 H   0  0  0  0  0  0  0  0  0  0  0  0
  119.6050  138.0540  137.7800 H   0  0  0  0  0  0  0  0  0  0  0  0
  121.6800  140.3370  138.1080 H   0  0  0  0  0  0  0  0  0  0  0  0
  119.8320  139.6360  139.8570 H   0  0  0  0  0  0  0  0  0  0  0  0
  121.5220  139.9410  140.4240 H   0  0  0  0  0  0  0  0  0  0  0  0
  1  2  1  0  0  0  0
  1  3  1  0  0  0  0
  3  4  1  0  0  0  0
  3  5  1  0  0  0  0
  5  6  1  0  0  0  0
  5  7  1  0  0  0  0
  7  8  1  0  0  0  0
  4  9  1  0  0  0  0
  7  9  1  0  0  0  0
  9 10  1  0  0  0  0
 10 11  1  0  0  0  0
 11 12  2  0  0  0  0
 12 15  1  0  0  0  0
 10 16  1  0  0  0  0
 15 16  2  0  0  0  0
 12 17  1  0  0  0  0
 13 17  1  0  0  0  0
 14 17  2  0  0  0  0
 13 18  1  0  0  0  0
 13 19  1  0  0  0  0
  8 20  1  0  0  0  0
  6 21  1  0  0  0  0
  2 22  1  0  0  0  0
 16 23  1  0  0  0  0
  9 24  1  0  0  0  0
  7 25  1  0  0  0  0
  5 26  1  0  0  0  0
  3 27  1  0  0  0  0
  1 28  1  0  0  0  0
  1 29  1  0  0  0  0
 30 31  1  0  0  0  0
 30 32  1  0  0  0  0
 32 33  1  0  0  0  0
 32 34  1  0  0  0  0
 34 35  1  0  0  0  0
 34 36  1  0  0  0  0
 36 37  1  0  0  0  0
 33 38  1  0  0  0  0
 36 38  1  0  0  0  0
 38 39  1  0  0  0  0
 39 40  1  0  0  0  0
 40 41  2  0  0  0  0
 41 44  1  0  0  0  0
 39 45  1  0  0  0  0
 44 45  2  0  0  0  0
 41 46  1  0  0  0  0
 42 46  1  0  0  0  0
 43 46  2  0  0  0  0
 42 47  1  0  0  0  0
 42 48  1  0  0  0  0
 37 49  1  0  0  0  0
 35 50  1  0  0  0  0
 31 51  1  0  0  0  0
 45 52  1  0  0  0  0
 38 53  1  0  0  0  0
 36 54  1  0  0  0  0
 34 55  1  0  0  0  0
 32 56  1  0  0  0  0
 30 57  1  0  0  0  0
 30 58  1  0  0  0  0
 59 60  1  0  0  0  0
 59 61  1  0  0  0  0
 61 62  1  0  0  0  0
 61 63  1  0  0  0  0
 63 64  1  0  0  0  0
 63 65  1  0  0  0  0
 65 66  1  0  0  0  0
 62 67  1  0  0  0  0
 65 67  1  0  0  0  0
 67 68  1  0  0  0  0
 68 69  1  0  0  0  0
 69 70  2  0  0  0  0
 70 73  1  0  0  0  0
 68 74  1  0  0  0  0
 73 74  2  0  0  0  0
 70 75  1  0  0  0  0
 71 75  1  0  0  0  0
 72 75  2  0  0  0  0
 71 76  1  0  0  0  0
 71 77  1  0  0  0  0
 66 78  1  0  0  0  0
 64 79  1  0  0  0  0
 60 80  1  0  0  0  0
 74 81  1  0  0  0  0
 67 82  1  0  0  0  0
 65 83  1  0  0  0  0
 63 84  1  0  0  0  0
 61 85  1  0  0  0  0
 59 86  1  0  0  0  0
 59 87  1  0  0  0  0
M  END
$$$$
