7M96
  PyMOL3.1          3D                             0

100108  0  0  0  0  0  0  0  0999 V2000
   -2.2861  -19.3648  -29.8911 N   0  0  0  0  0  0  0  0  0  0  0  0
   -2.1804  -18.6670  -28.6155 C   0  0  0  0  0  0  0  0  0  0  0  0
    1.6574  -26.7278  -32.8368 O   0  0  0  0  0  0  0  0  0  0  0  0
   -3.2664  -18.9616  -30.7643 C   0  0  0  0  0  0  0  0  0  0  0  0
    1.0096  -24.8679  -30.5467 N   0  0  0  0  0  0  0  0  0  0  0  0
   -4.0434  -18.0662  -30.4683 O   0  0  0  0  0  0  0  0  0  0  0  0
   -3.3481  -19.6555  -32.0964 C   0  0  0  0  0  0  0  0  0  0  0  0
   -2.9766  -21.1210  -31.9903 C   0  0  0  0  0  0  0  0  0  0  0  0
   -1.6997  -21.2960  -31.2106 C   0  0  0  0  0  0  0  0  0  0  0  0
   -1.3895  -20.4110  -30.1746 C   0  0  0  0  0  0  0  0  0  0  0  0
   -0.2151  -20.5734  -29.4486 C   0  0  0  0  0  0  0  0  0  0  0  0
    0.6489  -21.6093  -29.7614 C   0  0  0  0  0  0  0  0  0  0  0  0
    0.3700  -22.4943  -30.7931 C   0  0  0  0  0  0  0  0  0  0  0  0
    1.3454  -23.5833  -31.1692 C   0  0  0  0  0  0  0  0  0  0  0  0
    1.9693  -25.9938  -30.6220 C   0  0  0  0  0  0  0  0  0  0  0  0
    3.2876  -25.5186  -31.2343 C   0  0  0  0  0  0  0  0  0  0  0  0
    1.3536  -27.1004  -31.4972 C   0  0  0  0  0  0  0  0  0  0  0  0
    1.8587  -28.4973  -31.2118 C   0  0  0  0  0  0  0  0  0  0  0  0
    1.0662  -29.4154  -30.5363 C   0  0  0  0  0  0  0  0  0  0  0  0
    1.5176  -30.7035  -30.3014 C   0  0  0  0  0  0  0  0  0  0  0  0
    2.7651  -31.0906  -30.7369 C   0  0  0  0  0  0  0  0  0  0  0  0
    3.5632  -30.1911  -31.4075 C   0  0  0  0  0  0  0  0  0  0  0  0
    3.1145  -28.9025  -31.6439 C   0  0  0  0  0  0  0  0  0  0  0  0
    2.2693  -26.4947  -29.2088 C   0  0  0  0  0  0  0  0  0  0  0  0
   -0.8123  -22.3262  -31.5021 C   0  0  0  0  0  0  0  0  0  0  0  0
    0.7054   -0.6874  -31.9111 N   0  0  0  0  0  0  0  0  0  0  0  0
    1.9925   -1.3708  -31.9481 C   0  0  0  0  0  0  0  0  0  0  0  0
   -1.7618    6.8305  -27.6013 O   0  0  0  0  0  0  0  0  0  0  0  0
   -0.3072   -1.1827  -32.6952 C   0  0  0  0  0  0  0  0  0  0  0  0
    0.3858    4.9670  -28.7332 N   0  0  0  0  0  0  0  0  0  0  0  0
   -0.0803   -1.9988  -33.5760 O   0  0  0  0  0  0  0  0  0  0  0  0
   -1.7008   -0.6893  -32.4237 C   0  0  0  0  0  0  0  0  0  0  0  0
   -1.6966    0.8002  -32.1511 C   0  0  0  0  0  0  0  0  0  0  0  0
   -0.6410    1.1623  -31.1390 C   0  0  0  0  0  0  0  0  0  0  0  0
    0.5481    0.4302  -31.0698 C   0  0  0  0  0  0  0  0  0  0  0  0
    1.5314    0.7859  -30.1525 C   0  0  0  0  0  0  0  0  0  0  0  0
    1.3181    1.8506  -29.2928 C   0  0  0  0  0  0  0  0  0  0  0  0
    0.1353    2.5758  -29.3228 C   0  0  0  0  0  0  0  0  0  0  0  0
   -0.1365    3.6634  -28.3114 C   0  0  0  0  0  0  0  0  0  0  0  0
    0.4676    6.0789  -27.7574 C   0  0  0  0  0  0  0  0  0  0  0  0
    1.9086    6.5891  -27.7299 C   0  0  0  0  0  0  0  0  0  0  0  0
   -0.5204    7.1759  -28.2036 C   0  0  0  0  0  0  0  0  0  0  0  0
   -0.1321    8.5877  -27.8109 C   0  0  0  0  0  0  0  0  0  0  0  0
   -0.4075    9.0690  -26.5399 C   0  0  0  0  0  0  0  0  0  0  0  0
   -0.0916   10.3725  -26.1934 C   0  0  0  0  0  0  0  0  0  0  0  0
    0.5044   11.2084  -27.1107 C   0  0  0  0  0  0  0  0  0  0  0  0
    0.7854   10.7430  -28.3757 C   0  0  0  0  0  0  0  0  0  0  0  0
    0.4690    9.4403  -28.7259 C   0  0  0  0  0  0  0  0  0  0  0  0
    0.1271    5.5640  -26.3583 C   0  0  0  0  0  0  0  0  0  0  0  0
   -0.8265    2.2263  -30.2621 C   0  0  0  0  0  0  0  0  0  0  0  0
  -28.3469  -45.1755  -15.9786 N   0  0  0  0  0  0  0  0  0  0  0  0
  -28.3808  -44.0600  -16.9183 C   0  0  0  0  0  0  0  0  0  0  0  0
  -33.4690  -51.7155  -13.7297 O   0  0  0  0  0  0  0  0  0  0  0  0
  -27.3901  -45.1542  -14.9958 C   0  0  0  0  0  0  0  0  0  0  0  0
  -32.1764  -50.2596  -15.2760 N   0  0  0  0  0  0  0  0  0  0  0  0
  -26.5957  -44.2303  -14.9068 O   0  0  0  0  0  0  0  0  0  0  0  0
  -27.3475  -46.3162  -14.0383 C   0  0  0  0  0  0  0  0  0  0  0  0
  -28.7310  -46.8692  -13.7589 C   0  0  0  0  0  0  0  0  0  0  0  0
  -29.4994  -47.0726  -15.0398 C   0  0  0  0  0  0  0  0  0  0  0  0
  -29.2776  -46.2182  -16.1222 C   0  0  0  0  0  0  0  0  0  0  0  0
  -29.9640  -46.4144  -17.3157 C   0  0  0  0  0  0  0  0  0  0  0  0
  -30.8608  -47.4631  -17.4278 C   0  0  0  0  0  0  0  0  0  0  0  0
  -31.0967  -48.3279  -16.3685 C   0  0  0  0  0  0  0  0  0  0  0  0
  -32.0571  -49.4835  -16.5141 C   0  0  0  0  0  0  0  0  0  0  0  0
  -31.6714  -51.6501  -15.2619 C   0  0  0  0  0  0  0  0  0  0  0  0
  -32.0952  -52.3423  -16.5584 C   0  0  0  0  0  0  0  0  0  0  0  0
  -32.2418  -52.3711  -14.0267 C   0  0  0  0  0  0  0  0  0  0  0  0
  -32.4457  -53.8628  -14.1924 C   0  0  0  0  0  0  0  0  0  0  0  0
  -31.3633  -54.7325  -14.2094 C   0  0  0  0  0  0  0  0  0  0  0  0
  -31.5553  -56.0987  -14.3373 C   0  0  0  0  0  0  0  0  0  0  0  0
  -32.8282  -56.6122  -14.4490 C   0  0  0  0  0  0  0  0  0  0  0  0
  -33.9110  -55.7616  -14.4338 C   0  0  0  0  0  0  0  0  0  0  0  0
  -33.7227  -54.3951  -14.3067 C   0  0  0  0  0  0  0  0  0  0  0  0
  -30.1478  -51.5745  -15.1770 C   0  0  0  0  0  0  0  0  0  0  0  0
  -30.4114  -48.1132  -15.1783 C   0  0  0  0  0  0  0  0  0  0  0  0
  -31.3052  -26.2026  -13.9790 N   0  0  0  0  0  0  0  0  0  0  0  0
  -32.4195  -27.1002  -13.7201 C   0  0  0  0  0  0  0  0  0  0  0  0
  -29.9884  -18.5248  -18.0558 O   0  0  0  0  0  0  0  0  0  0  0  0
  -30.1476  -26.3841  -13.2575 C   0  0  0  0  0  0  0  0  0  0  0  0
  -31.9390  -20.7021  -17.2757 N   0  0  0  0  0  0  0  0  0  0  0  0
  -30.0855  -27.2399  -12.3854 O   0  0  0  0  0  0  0  0  0  0  0  0
  -28.9759  -25.5039  -13.5781 C   0  0  0  0  0  0  0  0  0  0  0  0
  -29.4121  -24.1017  -13.9493 C   0  0  0  0  0  0  0  0  0  0  0  0
  -30.5381  -24.1327  -14.9550 C   0  0  0  0  0  0  0  0  0  0  0  0
  -31.4494  -25.1870  -14.9411 C   0  0  0  0  0  0  0  0  0  0  0  0
  -32.4986  -25.2120  -15.8570 C   0  0  0  0  0  0  0  0  0  0  0  0
  -32.6299  -24.1869  -16.7775 C   0  0  0  0  0  0  0  0  0  0  0  0
  -31.7325  -23.1306  -16.8145 C   0  0  0  0  0  0  0  0  0  0  0  0
  -31.8588  -22.0462  -17.8562 C   0  0  0  0  0  0  0  0  0  0  0  0
  -32.1029  -19.5660  -18.2120 C   0  0  0  0  0  0  0  0  0  0  0  0
  -31.5431  -19.9601  -19.5797 C   0  0  0  0  0  0  0  0  0  0  0  0
  -31.3445  -18.3437  -17.6613 C   0  0  0  0  0  0  0  0  0  0  0  0
  -31.8636  -17.0027  -18.1346 C   0  0  0  0  0  0  0  0  0  0  0  0
  -32.5291  -16.1511  -17.2637 C   0  0  0  0  0  0  0  0  0  0  0  0
  -32.9831  -14.9139  -17.6917 C   0  0  0  0  0  0  0  0  0  0  0  0
  -32.7816  -14.5140  -18.9936 C   0  0  0  0  0  0  0  0  0  0  0  0
  -32.1242  -15.3483  -19.8691 C   0  0  0  0  0  0  0  0  0  0  0  0
  -31.6663  -16.5843  -19.4435 C   0  0  0  0  0  0  0  0  0  0  0  0
  -33.5913  -19.2621  -18.3874 C   0  0  0  0  0  0  0  0  0  0  0  0
  -30.6909  -23.1172  -15.8921 C   0  0  0  0  0  0  0  0  0  0  0  0
  1  2  1  0  0  0  0
  1  4  1  0  0  0  0
  4  6  2  0  0  0  0
  4  7  1  0  0  0  0
  7  8  1  0  0  0  0
  8  9  1  0  0  0  0
  1 10  1  0  0  0  0
  9 10  1  0  0  0  0
 10 11  2  0  0  0  0
 11 12  1  0  0  0  0
 12 13  2  0  0  0  0
  5 14  1  0  0  0  0
 13 14  1  0  0  0  0
  5 15  1  0  0  0  0
 15 16  1  0  0  0  0
  3 17  1  0  0  0  0
 15 17  1  0  0  0  0
 17 18  1  0  0  0  0
 18 19  2  0  0  0  0
 19 20  1  0  0  0  0
 20 21  2  0  0  0  0
 21 22  1  0  0  0  0
 18 23  1  0  0  0  0
 22 23  2  0  0  0  0
 15 24  1  0  0  0  0
  9 25  2  0  0  0  0
 13 25  1  0  0  0  0
 26 27  1  0  0  0  0
 26 29  1  0  0  0  0
 29 31  2  0  0  0  0
 29 32  1  0  0  0  0
 32 33  1  0  0  0  0
 33 34  1  0  0  0  0
 26 35  1  0  0  0  0
 34 35  1  0  0  0  0
 35 36  2  0  0  0  0
 36 37  1  0  0  0  0
 37 38  2  0  0  0  0
 30 39  1  0  0  0  0
 38 39  1  0  0  0  0
 30 40  1  0  0  0  0
 40 41  1  0  0  0  0
 28 42  1  0  0  0  0
 40 42  1  0  0  0  0
 42 43  1  0  0  0  0
 43 44  2  0  0  0  0
 44 45  1  0  0  0  0
 45 46  2  0  0  0  0
 46 47  1  0  0  0  0
 43 48  1  0  0  0  0
 47 48  2  0  0  0  0
 40 49  1  0  0  0  0
 34 50  2  0  0  0  0
 38 50  1  0  0  0  0
 51 52  1  0  0  0  0
 51 54  1  0  0  0  0
 54 56  2  0  0  0  0
 54 57  1  0  0  0  0
 57 58  1  0  0  0  0
 58 59  1  0  0  0  0
 51 60  1  0  0  0  0
 59 60  1  0  0  0  0
 60 61  2  0  0  0  0
 61 62  1  0  0  0  0
 62 63  2  0  0  0  0
 55 64  1  0  0  0  0
 63 64  1  0  0  0  0
 55 65  1  0  0  0  0
 65 66  1  0  0  0  0
 53 67  1  0  0  0  0
 65 67  1  0  0  0  0
 67 68  1  0  0  0  0
 68 69  2  0  0  0  0
 69 70  1  0  0  0  0
 70 71  2  0  0  0  0
 71 72  1  0  0  0  0
 68 73  1  0  0  0  0
 72 73  2  0  0  0  0
 65 74  1  0  0  0  0
 59 75  2  0  0  0  0
 63 75  1  0  0  0  0
 76 77  1  0  0  0  0
 76 79  1  0  0  0  0
 79 81  2  0  0  0  0
 79 82  1  0  0  0  0
 82 83  1  0  0  0  0
 83 84  1  0  0  0  0
 76 85  1  0  0  0  0
 84 85  1  0  0  0  0
 85 86  2  0  0  0  0
 86 87  1  0  0  0  0
 87 88  2  0  0  0  0
 80 89  1  0  0  0  0
 88 89  1  0  0  0  0
 80 90  1  0  0  0  0
 90 91  1  0  0  0  0
 78 92  1  0  0  0  0
 90 92  1  0  0  0  0
 92 93  1  0  0  0  0
 93 94  2  0  0  0  0
 94 95  1  0  0  0  0
 95 96  2  0  0  0  0
 96 97  1  0  0  0  0
 93 98  1  0  0  0  0
 97 98  2  0  0  0  0
 90 99  1  0  0  0  0
 84100  2  0  0  0  0
 88100  1  0  0  0  0
M  END
$$$$
