8ZRK
  PyMOL3.1          3D                             0

 60 63  0  0  0  0  0  0  0  0999 V2000
  172.7550  157.4680  138.8230 C   0  0  0  0  0  0  0  0  0  0  0  0
  172.7210  157.9930  137.3930 C   0  0  0  0  0  0  0  0  0  0  0  0
  173.8640  158.9610  137.1540 C   0  0  0  0  0  0  0  0  0  0  0  0
  171.3890  158.6450  137.0820 C   0  0  0  0  0  0  0  0  0  0  0  0
  170.4610  158.8620  137.9730 N   0  0  0  0  0  0  0  0  0  0  0  0
  169.4260  159.4490  137.3280 O   0  0  0  0  0  0  0  0  0  0  0  0
  169.7640  159.5570  136.0530 C   0  0  0  0  0  0  0  0  0  0  0  0
  168.9520  160.1560  135.0430 N   0  0  0  0  0  0  0  0  0  0  0  0
  169.5640  161.3940  134.4400 C   0  0  0  0  0  0  0  0  0  0  0  0
  168.5780  162.2440  133.6790 C   0  0  0  0  0  0  0  0  0  0  0  0
  167.5550  161.4670  133.0340 C   0  0  0  0  0  0  0  0  0  0  0  0
  167.1800  162.1600  131.7380 C   0  0  0  0  0  0  0  0  0  0  0  0
  166.8410  163.4850  132.0160 O   0  0  0  0  0  0  0  0  0  0  0  0
  166.2620  164.2440  130.9980 C   0  0  0  0  0  0  0  0  0  0  0  0
  166.3830  163.9170  129.6650 C   0  0  0  0  0  0  0  0  0  0  0  0
  165.7730  164.7380  128.7460 C   0  0  0  0  0  0  0  0  0  0  0  0
  165.0610  165.8530  129.1340 C   0  0  0  0  0  0  0  0  0  0  0  0
  164.4370  166.6850  128.2100 C   0  0  0  0  0  0  0  0  0  0  0  0
  163.9240  166.1900  127.0220 C   0  0  0  0  0  0  0  0  0  0  0  0
  163.3000  167.0240  126.1200 C   0  0  0  0  0  0  0  0  0  0  0  0
  163.1680  168.3630  126.3920 C   0  0  0  0  0  0  0  0  0  0  0  0
  162.3480  169.4370  125.1790 S   0  0  0  0  0  0  0  0  0  0  0  0
  160.5800  169.0830  125.0140 C   0  0  0  0  0  0  0  0  0  0  0  0
  162.5390  170.8470  125.4980 O   0  0  0  0  0  0  0  0  0  0  0  0
  163.0140  169.3150  123.8920 O   0  0  0  0  0  0  0  0  0  0  0  0
  163.6740  168.8650  127.5700 C   0  0  0  0  0  0  0  0  0  0  0  0
  164.3010  168.0330  128.4760 C   0  0  0  0  0  0  0  0  0  0  0  0
  164.9840  166.1020  130.4200 N   0  0  0  0  0  0  0  0  0  0  0  0
  165.5500  165.3660  131.3540 C   0  0  0  0  0  0  0  0  0  0  0  0
  167.9720  160.1280  132.7040 C   0  0  0  0  0  0  0  0  0  0  0  0
  168.4010  159.3140  133.9160 C   0  0  0  0  0  0  0  0  0  0  0  0
  170.9750  159.0700  135.9100 N   0  0  0  0  0  0  0  0  0  0  0  0
  171.9340  156.7750  138.9770 H   0  0  0  0  0  0  0  0  0  0  0  0
  172.6720  158.3020  139.5140 H   0  0  0  0  0  0  0  0  0  0  0  0
  173.6990  156.9570  138.9870 H   0  0  0  0  0  0  0  0  0  0  0  0
  172.8480  157.1520  136.7230 H   0  0  0  0  0  0  0  0  0  0  0  0
  173.6460  159.8940  137.6640 H   0  0  0  0  0  0  0  0  0  0  0  0
  174.7810  158.5340  137.5470 H   0  0  0  0  0  0  0  0  0  0  0  0
  173.9660  159.1410  136.0890 H   0  0  0  0  0  0  0  0  0  0  0  0
  170.3650  161.0970  133.7710 H   0  0  0  0  0  0  0  0  0  0  0  0
  169.9820  161.9880  135.2440 H   0  0  0  0  0  0  0  0  0  0  0  0
  168.1150  162.9400  134.3700 H   0  0  0  0  0  0  0  0  0  0  0  0
  169.1360  162.7910  132.9280 H   0  0  0  0  0  0  0  0  0  0  0  0
  166.6870  161.4160  133.6770 H   0  0  0  0  0  0  0  0  0  0  0  0
  168.0310  162.1250  131.0680 H   0  0  0  0  0  0  0  0  0  0  0  0
  166.3370  161.6430  131.2940 H   0  0  0  0  0  0  0  0  0  0  0  0
  166.9360  163.0550  129.3150 H   0  0  0  0  0  0  0  0  0  0  0  0
  165.8690  164.4840  127.6980 H   0  0  0  0  0  0  0  0  0  0  0  0
  164.0020  165.1390  126.7780 H   0  0  0  0  0  0  0  0  0  0  0  0
  162.9060  166.6230  125.1960 H   0  0  0  0  0  0  0  0  0  0  0  0
  160.3550  168.1500  125.5250 H   0  0  0  0  0  0  0  0  0  0  0  0
  160.3270  168.9930  123.9630 H   0  0  0  0  0  0  0  0  0  0  0  0
  160.0070  169.8900  125.4610 H   0  0  0  0  0  0  0  0  0  0  0  0
  163.5830  169.9190  127.7950 H   0  0  0  0  0  0  0  0  0  0  0  0
  164.6870  168.4560  129.3940 H   0  0  0  0  0  0  0  0  0  0  0  0
  165.4430  165.6300  132.3990 H   0  0  0  0  0  0  0  0  0  0  0  0
  167.1410  159.6240  132.2260 H   0  0  0  0  0  0  0  0  0  0  0  0
  168.7990  160.1850  132.0050 H   0  0  0  0  0  0  0  0  0  0  0  0
  169.1680  158.6140  133.6080 H   0  0  0  0  0  0  0  0  0  0  0  0
  167.5420  158.7650  134.2850 H   0  0  0  0  0  0  0  0  0  0  0  0
  1  2  1  0  0  0  0
  2  3  1  0  0  0  0
  2  4  1  0  0  0  0
  4  5  2  0  0  0  0
  5  6  1  0  0  0  0
  6  7  1  0  0  0  0
  7  8  1  0  0  0  0
  8  9  1  0  0  0  0
  9 10  1  0  0  0  0
 10 11  1  0  0  0  0
 11 12  1  0  0  0  0
 12 13  1  0  0  0  0
 13 14  1  0  0  0  0
 14 15  2  0  0  0  0
 15 16  1  0  0  0  0
 16 17  2  0  0  0  0
 17 18  1  0  0  0  0
 18 19  2  0  0  0  0
 19 20  1  0  0  0  0
 20 21  2  0  0  0  0
 21 22  1  0  0  0  0
 22 23  1  0  0  0  0
 22 24  2  0  0  0  0
 22 25  2  0  0  0  0
 21 26  1  0  0  0  0
 18 27  1  0  0  0  0
 26 27  2  0  0  0  0
 17 28  1  0  0  0  0
 14 29  1  0  0  0  0
 28 29  2  0  0  0  0
 11 30  1  0  0  0  0
  8 31  1  0  0  0  0
 30 31  1  0  0  0  0
  4 32  1  0  0  0  0
  7 32  2  0  0  0  0
  1 33  1  0  0  0  0
  1 34  1  0  0  0  0
  1 35  1  0  0  0  0
  2 36  1  0  0  0  0
  3 37  1  0  0  0  0
  3 38  1  0  0  0  0
  3 39  1  0  0  0  0
  9 40  1  0  0  0  0
  9 41  1  0  0  0  0
 10 42  1  0  0  0  0
 10 43  1  0  0  0  0
 11 44  1  0  0  0  0
 12 45  1  0  0  0  0
 12 46  1  0  0  0  0
 15 47  1  0  0  0  0
 16 48  1  0  0  0  0
 19 49  1  0  0  0  0
 20 50  1  0  0  0  0
 23 51  1  0  0  0  0
 23 52  1  0  0  0  0
 23 53  1  0  0  0  0
 26 54  1  0  0  0  0
 27 55  1  0  0  0  0
 29 56  1  0  0  0  0
 30 57  1  0  0  0  0
 30 58  1  0  0  0  0
 31 59  1  0  0  0  0
 31 60  1  0  0  0  0
M  END
$$$$
