7M95
  PyMOL3.1          3D                             0

 24 27  0  0  0  0  0  0  0  0999 V2000
   28.0640   -9.9179   19.1631 N   0  0  0  0  0  0  0  0  0  0  0  0
   30.4746  -10.1737   18.5662 C   0  0  0  0  0  0  0  0  0  0  0  0
   29.0339  -10.5381   18.2537 C   0  0  0  0  0  0  0  0  0  0  0  0
   23.6321   -8.6288   23.6169 N   0  0  0  0  0  0  0  0  0  0  0  0
   27.8711  -10.7330   20.3636 C   0  0  0  0  0  0  0  0  0  0  0  0
   21.7890   -7.2891   22.8485 N   0  0  0  0  0  0  0  0  0  0  0  0
   27.0292   -9.9990   21.3962 C   0  0  0  0  0  0  0  0  0  0  0  0
   25.8188   -9.3618   20.7635 C   0  0  0  0  0  0  0  0  0  0  0  0
   25.7140   -9.2242   19.4354 C   0  0  0  0  0  0  0  0  0  0  0  0
   26.7666   -9.6824   18.4799 C   0  0  0  0  0  0  0  0  0  0  0  0
   24.7752   -8.9070   21.6978 C   0  0  0  0  0  0  0  0  0  0  0  0
   24.7356   -9.1925   23.0410 C   0  0  0  0  0  0  0  0  0  0  0  0
   22.9324   -7.9626   22.6478 C   0  0  0  0  0  0  0  0  0  0  0  0
   21.2760   -6.7074   21.7521 C   0  0  0  0  0  0  0  0  0  0  0  0
   21.8524   -6.7759   20.4890 C   0  0  0  0  0  0  0  0  0  0  0  0
   23.0349   -7.4830   20.3162 C   0  0  0  0  0  0  0  0  0  0  0  0
   23.6038   -8.1009   21.4244 C   0  0  0  0  0  0  0  0  0  0  0  0
   31.4776  -10.7703   17.5817 C   0  0  0  0  0  0  0  0  0  0  0  0
   32.9220  -10.5275   17.9479 C   0  0  0  0  0  0  0  0  0  0  0  0
   33.8315  -10.0891   16.9973 C   0  0  0  0  0  0  0  0  0  0  0  0
   35.1582   -9.8759   17.3317 C   0  0  0  0  0  0  0  0  0  0  0  0
   35.5918  -10.0979   18.6179 C   0  0  0  0  0  0  0  0  0  0  0  0
   34.7010  -10.5305   19.5720 C   0  0  0  0  0  0  0  0  0  0  0  0
   33.3740  -10.7440   19.2409 C   0  0  0  0  0  0  0  0  0  0  0  0
  1  3  1  0  0  0  0
  2  3  1  0  0  0  0
  1  5  1  0  0  0  0
  5  7  1  0  0  0  0
  7  8  1  0  0  0  0
  8  9  2  0  0  0  0
  1 10  1  0  0  0  0
  9 10  1  0  0  0  0
  8 11  1  0  0  0  0
  4 12  1  0  0  0  0
 11 12  2  0  0  0  0
  4 13  1  0  0  0  0
  6 13  1  0  0  0  0
  6 14  2  0  0  0  0
 14 15  1  0  0  0  0
 15 16  2  0  0  0  0
 11 17  1  0  0  0  0
 13 17  2  0  0  0  0
 16 17  1  0  0  0  0
  2 18  1  0  0  0  0
 18 19  1  0  0  0  0
 19 20  2  0  0  0  0
 20 21  1  0  0  0  0
 21 22  2  0  0  0  0
 22 23  1  0  0  0  0
 19 24  1  0  0  0  0
 23 24  2  0  0  0  0
M  END
$$$$
