8V80
  PyMOL3.1          3D                             0

 47 51  0  0  0  0  0  0  0  0999 V2000
  130.5380  156.1650  130.4050 C   0  0  0  0  0  0  0  0  0  0  0  0
  130.4110  156.8900  131.6610 C   0  0  0  0  0  0  0  0  0  0  0  0
  130.6810  156.1560  132.7120 C   0  0  0  0  0  0  0  0  0  0  0  0
  131.1290  154.7580  132.3470 C   0  0  0  0  0  0  0  0  0  0  0  0
  130.9030  154.7250  130.8100 C   0  0  0  0  0  0  0  0  0  0  0  0
  132.0030  153.8710  130.1740 C   0  0  0  0  0  0  0  0  0  0  0  0
  133.2760  154.4960  130.4810 N   0  0  0  0  0  0  0  0  0  0  0  0
  133.5970  154.5270  131.8150 C   0  0  0  0  0  0  0  0  0  0  0  0
  132.5800  154.6320  132.7720 C   0  0  0  0  0  0  0  0  0  0  0  0
  132.9380  154.6910  134.1150 C   0  0  0  0  0  0  0  0  0  0  0  0
  134.2710  154.6590  134.4950 C   0  0  0  0  0  0  0  0  0  0  0  0
  135.2720  154.5640  133.5460 C   0  0  0  0  0  0  0  0  0  0  0  0
  134.9300  154.5010  132.2100 C   0  0  0  0  0  0  0  0  0  0  0  0
  134.7090  154.6900  136.2020 S   0  0  0  0  0  0  0  0  0  0  0  0
  134.6110  153.3570  136.6940 O   0  0  0  0  0  0  0  0  0  0  0  0
  135.9680  155.3520  136.3030 O   0  0  0  0  0  0  0  0  0  0  0  0
  133.6390  155.5700  136.9890 N   0  0  0  0  0  0  0  0  0  0  0  0
  131.8370  153.6680  128.6730 C   0  0  0  0  0  0  0  0  0  0  0  0
  132.1390  154.6900  127.8100 C   0  0  0  0  0  0  0  0  0  0  0  0
  132.0060  154.5540  126.4390 C   0  0  0  0  0  0  0  0  0  0  0  0
  131.5650  153.3870  125.8980 C   0  0  0  0  0  0  0  0  0  0  0  0
  131.2300  152.2940  126.7260 C   0  0  0  0  0  0  0  0  0  0  0  0
  130.7170  151.0880  126.1960 C   0  0  0  0  0  0  0  0  0  0  0  0
  130.3580  150.0600  127.0170 C   0  0  0  0  0  0  0  0  0  0  0  0
  130.4870  150.1780  128.3870 C   0  0  0  0  0  0  0  0  0  0  0  0
  130.9780  151.3250  128.9430 C   0  0  0  0  0  0  0  0  0  0  0  0
  131.3670  152.4260  128.1380 C   0  0  0  0  0  0  0  0  0  0  0  0
  130.6080  154.1010  132.8510 H   0  0  0  0  0  0  0  0  0  0  0  0
  130.1470  157.8320  131.7050 H   0  0  0  0  0  0  0  0  0  0  0  0
  130.6050  156.4880  133.6300 H   0  0  0  0  0  0  0  0  0  0  0  0
  130.0860  154.2090  130.6560 H   0  0  0  0  0  0  0  0  0  0  0  0
  131.9550  153.0100  130.6320 H   0  0  0  0  0  0  0  0  0  0  0  0
  133.7930  154.8420  129.8640 H   0  0  0  0  0  0  0  0  0  0  0  0
  132.2440  154.7480  134.8030 H   0  0  0  0  0  0  0  0  0  0  0  0
  136.2160  154.5330  133.8030 H   0  0  0  0  0  0  0  0  0  0  0  0
  135.6500  154.4940  131.5510 H   0  0  0  0  0  0  0  0  0  0  0  0
  131.0420  151.3410  129.9190 H   0  0  0  0  0  0  0  0  0  0  0  0
  133.3500  156.2620  136.5220 H   0  0  0  0  0  0  0  0  0  0  0  0
  133.9890  155.8180  137.7600 H   0  0  0  0  0  0  0  0  0  0  0  0
  132.4610  155.5570  128.1290 H   0  0  0  0  0  0  0  0  0  0  0  0
  132.2260  155.3080  125.8560 H   0  0  0  0  0  0  0  0  0  0  0  0
  131.4840  153.3190  124.9250 H   0  0  0  0  0  0  0  0  0  0  0  0
  130.6110  150.9760  125.2300 H   0  0  0  0  0  0  0  0  0  0  0  0
  130.0090  149.2330  126.6310 H   0  0  0  0  0  0  0  0  0  0  0  0
  131.2140  156.5990  129.8460 H   0  0  0  0  0  0  0  0  0  0  0  0
  129.6880  156.1740  129.9180 H   0  0  0  0  0  0  0  0  0  0  0  0
  130.2210  149.4360  128.9670 H   0  0  0  0  0  0  0  0  0  0  0  0
  1  2  1  0  0  0  0
  2  3  2  0  0  0  0
  3  4  1  0  0  0  0
  1  5  1  0  0  0  0
  4  5  1  0  0  0  0
  5  6  1  0  0  0  0
  6  7  1  0  0  0  0
  7  8  1  0  0  0  0
  4  9  1  0  0  0  0
  8  9  1  0  0  0  0
  9 10  2  0  0  0  0
 10 11  1  0  0  0  0
 11 12  2  0  0  0  0
  8 13  2  0  0  0  0
 12 13  1  0  0  0  0
 11 14  1  0  0  0  0
 14 15  2  0  0  0  0
 14 16  2  0  0  0  0
 14 17  1  0  0  0  0
  6 18  1  0  0  0  0
 18 19  2  0  0  0  0
 19 20  1  0  0  0  0
 20 21  2  0  0  0  0
 21 22  1  0  0  0  0
 22 23  2  0  0  0  0
 23 24  1  0  0  0  0
 24 25  2  0  0  0  0
 25 26  1  0  0  0  0
 18 27  1  0  0  0  0
 22 27  1  0  0  0  0
 26 27  2  0  0  0  0
  4 28  1  0  0  0  0
  2 29  1  0  0  0  0
  3 30  1  0  0  0  0
  5 31  1  0  0  0  0
  6 32  1  0  0  0  0
  7 33  1  0  0  0  0
 10 34  1  0  0  0  0
 12 35  1  0  0  0  0
 13 36  1  0  0  0  0
 26 37  1  0  0  0  0
 17 38  1  0  0  0  0
 17 39  1  0  0  0  0
 19 40  1  0  0  0  0
 20 41  1  0  0  0  0
 21 42  1  0  0  0  0
 23 43  1  0  0  0  0
 24 44  1  0  0  0  0
  1 45  1  0  0  0  0
  1 46  1  0  0  0  0
 25 47  1  0  0  0  0
M  END
$$$$
