8JLQ
  PyMOL3.1          3D                             0

 21 23  0  0  0  0  0  0  0  0999 V2000
  106.5610   79.3690  107.2950 Cl  0  0  0  0  0  0  0  0  0  0  0  0
  105.3740   76.9380  108.3950 O   0  0  0  0  0  0  0  0  0  0  0  0
  106.4060   76.7060  107.5520 C   0  0  0  0  0  0  0  0  0  0  0  0
  106.8190   75.4040  107.2800 C   0  0  0  0  0  0  0  0  0  0  0  0
  106.1440   74.3850  107.8720 O   0  0  0  0  0  0  0  0  0  0  0  0
  107.8820   75.1770  106.4300 C   0  0  0  0  0  0  0  0  0  0  0  0
  108.5530   76.2530  105.8500 C   0  0  0  0  0  0  0  0  0  0  0  0
  109.7190   76.0770  104.8920 C   0  0  0  0  0  0  0  0  0  0  0  0
  110.3210   74.6810  104.9900 C   0  0  0  0  0  0  0  0  0  0  0  0
  111.4820   74.4540  105.7170 C   0  0  0  0  0  0  0  0  0  0  0  0
  112.0360   73.1910  105.8130 C   0  0  0  0  0  0  0  0  0  0  0  0
  111.4340   72.1260  105.1710 C   0  0  0  0  0  0  0  0  0  0  0  0
  111.9700   70.8760  105.2580 O   0  0  0  0  0  0  0  0  0  0  0  0
  110.2780   72.3290  104.4430 C   0  0  0  0  0  0  0  0  0  0  0  0
  109.7320   73.5960  104.3560 C   0  0  0  0  0  0  0  0  0  0  0  0
  109.2340   76.4520  103.4960 C   0  0  0  0  0  0  0  0  0  0  0  0
  109.3220   77.8780  103.1840 N   0  0  0  0  0  0  0  0  0  0  0  0
  108.4360   78.7140  103.9840 C   0  0  0  0  0  0  0  0  0  0  0  0
  108.8590   78.7010  105.4380 C   0  0  0  0  0  0  0  0  0  0  0  0
  108.1470   77.5590  106.1060 C   0  0  0  0  0  0  0  0  0  0  0  0
  107.0780   77.7590  106.9580 C   0  0  0  0  0  0  0  0  0  0  0  0
  2  3  1  0  0  0  0
  3  4  2  0  0  0  0
  4  5  1  0  0  0  0
  4  6  1  0  0  0  0
  6  7  2  0  0  0  0
  7  8  1  0  0  0  0
  8  9  1  0  0  0  0
  9 10  1  0  0  0  0
 10 11  2  0  0  0  0
 11 12  1  0  0  0  0
 12 13  1  0  0  0  0
 12 14  2  0  0  0  0
  9 15  2  0  0  0  0
 14 15  1  0  0  0  0
  8 16  1  0  0  0  0
 16 17  1  0  0  0  0
 17 18  1  0  0  0  0
 18 19  1  0  0  0  0
  7 20  1  0  0  0  0
 19 20  1  0  0  0  0
  1 21  1  0  0  0  0
  3 21  1  0  0  0  0
 20 21  2  0  0  0  0
M  END
$$$$
