6X0P
  PyMOL3.1          3D                             0

 92100  0  0  0  0  0  0  0  0999 V2000
   18.0682  -34.1615  -20.3683 N   0  0  0  0  0  0  0  0  0  0  0  0
   17.6107  -35.1060  -21.3510 C   0  0  0  0  0  0  0  0  0  0  0  0
   18.3499  -35.1459  -22.6709 C   0  0  0  0  0  0  0  0  0  0  0  0
   19.1778  -34.0906  -23.0144 C   0  0  0  0  0  0  0  0  0  0  0  0
   19.8671  -34.1190  -24.2141 C   0  0  0  0  0  0  0  0  0  0  0  0
   20.7960  -32.9841  -24.6268 C   0  0  0  0  0  0  0  0  0  0  0  0
   21.9851  -33.1882  -25.3061 C   0  0  0  0  0  0  0  0  0  0  0  0
   22.5444  -32.0058  -25.5177 N   0  0  0  0  0  0  0  0  0  0  0  0
   23.8210  -31.7991  -26.1957 C   0  0  0  0  0  0  0  0  0  0  0  0
   23.7434  -32.3705  -27.6107 C   0  0  0  0  0  0  0  0  0  0  0  0
   22.9985  -31.4723  -28.3905 O   0  0  0  0  0  0  0  0  0  0  0  0
   21.7474  -31.0178  -25.0019 C   0  0  0  0  0  0  0  0  0  0  0  0
   20.6409  -31.5940  -24.4278 C   0  0  0  0  0  0  0  0  0  0  0  0
   19.6511  -30.7747  -23.8201 C   0  0  0  0  0  0  0  0  0  0  0  0
   19.8088  -29.3922  -23.7996 C   0  0  0  0  0  0  0  0  0  0  0  0
   20.9456  -28.8157  -24.3746 C   0  0  0  0  0  0  0  0  0  0  0  0
   21.1287  -27.3014  -24.3618 C   0  0  0  0  0  0  0  0  0  0  0  0
   21.4461  -26.8515  -25.7134 N   0  0  0  0  0  0  0  0  0  0  0  0
   21.9080  -29.6117  -24.9688 C   0  0  0  0  0  0  0  0  0  0  0  0
   19.7255  -35.2024  -25.0677 C   0  0  0  0  0  0  0  0  0  0  0  0
   18.9051  -36.2596  -24.7105 C   0  0  0  0  0  0  0  0  0  0  0  0
   18.2096  -36.2317  -23.5178 C   0  0  0  0  0  0  0  0  0  0  0  0
   16.3754  -36.0906  -21.0236 S   0  0  0  0  0  0  0  0  0  0  0  0
   18.8602   -2.3535  -24.1870 N   0  0  0  0  0  0  0  0  0  0  0  0
   18.5986   -3.4617  -25.0791 C   0  0  0  0  0  0  0  0  0  0  0  0
   19.3920   -3.5631  -26.3794 C   0  0  0  0  0  0  0  0  0  0  0  0
   20.0674   -2.4459  -26.8460 C   0  0  0  0  0  0  0  0  0  0  0  0
   20.8116   -2.5018  -28.0107 C   0  0  0  0  0  0  0  0  0  0  0  0
   21.5710   -1.2794  -28.5249 C   0  0  0  0  0  0  0  0  0  0  0  0
   22.8275   -1.3270  -29.1114 C   0  0  0  0  0  0  0  0  0  0  0  0
   23.1773   -0.0809  -29.4397 N   0  0  0  0  0  0  0  0  0  0  0  0
   24.4382    0.2645  -30.0904 C   0  0  0  0  0  0  0  0  0  0  0  0
   24.1739    0.9302  -31.4400 C   0  0  0  0  0  0  0  0  0  0  0  0
   23.7761   -0.0445  -32.3553 O   0  0  0  0  0  0  0  0  0  0  0  0
   22.1819    0.7979  -29.0924 C   0  0  0  0  0  0  0  0  0  0  0  0
   21.1621    0.0811  -28.5165 C   0  0  0  0  0  0  0  0  0  0  0  0
   20.0067    0.7649  -28.0646 C   0  0  0  0  0  0  0  0  0  0  0  0
   19.8997    2.1479  -28.1948 C   0  0  0  0  0  0  0  0  0  0  0  0
   20.9345    2.8728  -28.7813 C   0  0  0  0  0  0  0  0  0  0  0  0
   20.8292    4.3919  -28.9331 C   0  0  0  0  0  0  0  0  0  0  0  0
   21.3183    4.7837  -30.2427 N   0  0  0  0  0  0  0  0  0  0  0  0
   22.0710    2.2123  -29.2270 C   0  0  0  0  0  0  0  0  0  0  0  0
   20.8721   -3.6926  -28.7182 C   0  0  0  0  0  0  0  0  0  0  0  0
   20.1977   -4.8100  -28.2471 C   0  0  0  0  0  0  0  0  0  0  0  0
   19.4552   -4.7558  -27.0831 C   0  0  0  0  0  0  0  0  0  0  0  0
   17.5125   -4.5612  -24.6714 S   0  0  0  0  0  0  0  0  0  0  0  0
  -17.9368   -0.1003   20.6939 N   0  0  0  0  0  0  0  0  0  0  0  0
  -17.5143   -1.0435   21.6964 C   0  0  0  0  0  0  0  0  0  0  0  0
  -18.2403   -1.0846   23.0300 C   0  0  0  0  0  0  0  0  0  0  0  0
  -19.0573   -0.0224   23.4147 C   0  0  0  0  0  0  0  0  0  0  0  0
  -19.7201   -0.0792   24.6280 C   0  0  0  0  0  0  0  0  0  0  0  0
  -20.6434    1.0487   25.0831 C   0  0  0  0  0  0  0  0  0  0  0  0
  -21.8340    0.8165   25.7514 C   0  0  0  0  0  0  0  0  0  0  0  0
  -22.4014    1.9886   25.9952 N   0  0  0  0  0  0  0  0  0  0  0  0
  -23.6808    2.1288   26.6770 C   0  0  0  0  0  0  0  0  0  0  0  0
  -23.5588    2.9785   27.9357 C   0  0  0  0  0  0  0  0  0  0  0  0
  -22.8047    2.2538   28.8593 O   0  0  0  0  0  0  0  0  0  0  0  0
  -21.6101    3.0045   25.5183 C   0  0  0  0  0  0  0  0  0  0  0  0
  -20.4991    2.4448   24.9244 C   0  0  0  0  0  0  0  0  0  0  0  0
  -19.5150    3.2858   24.3504 C   0  0  0  0  0  0  0  0  0  0  0  0
  -19.6676    4.6714   24.3641 C   0  0  0  0  0  0  0  0  0  0  0  0
  -20.8025    5.2401   24.9519 C   0  0  0  0  0  0  0  0  0  0  0  0
  -20.9875    6.7594   24.9839 C   0  0  0  0  0  0  0  0  0  0  0  0
  -21.6467    7.1196   26.2318 N   0  0  0  0  0  0  0  0  0  0  0  0
  -21.7652    4.4195   25.5292 C   0  0  0  0  0  0  0  0  0  0  0  0
  -19.5760   -1.1904   25.4430 C   0  0  0  0  0  0  0  0  0  0  0  0
  -18.7520   -2.2348   25.0568 C   0  0  0  0  0  0  0  0  0  0  0  0
  -18.0841   -2.1872   23.8471 C   0  0  0  0  0  0  0  0  0  0  0  0
  -16.2996   -2.0460   21.3944 S   0  0  0  0  0  0  0  0  0  0  0  0
  -18.9144   31.5690   24.4762 N   0  0  0  0  0  0  0  0  0  0  0  0
  -18.6156   30.5149   25.4186 C   0  0  0  0  0  0  0  0  0  0  0  0
  -19.4002   30.4375   26.7197 C   0  0  0  0  0  0  0  0  0  0  0  0
  -20.0505   31.5591   27.2043 C   0  0  0  0  0  0  0  0  0  0  0  0
  -20.7759   31.4853   28.3858 C   0  0  0  0  0  0  0  0  0  0  0  0
  -21.5323   32.6988   28.9195 C   0  0  0  0  0  0  0  0  0  0  0  0
  -22.7840   32.6220   29.5110 C   0  0  0  0  0  0  0  0  0  0  0  0
  -23.1597   33.8541   29.8488 N   0  0  0  0  0  0  0  0  0  0  0  0
  -24.4161   34.1988   30.5021 C   0  0  0  0  0  0  0  0  0  0  0  0
  -24.4639   33.6211   31.9128 C   0  0  0  0  0  0  0  0  0  0  0  0
  -23.5325   34.2956   32.7151 O   0  0  0  0  0  0  0  0  0  0  0  0
  -22.1870   34.7572   29.4889 C   0  0  0  0  0  0  0  0  0  0  0  0
  -21.1512   34.0659   28.9003 C   0  0  0  0  0  0  0  0  0  0  0  0
  -20.0123   34.7677   28.4371 C   0  0  0  0  0  0  0  0  0  0  0  0
  -19.9434   36.1526   28.5742 C   0  0  0  0  0  0  0  0  0  0  0  0
  -20.9942   36.8497   29.1734 C   0  0  0  0  0  0  0  0  0  0  0  0
  -20.8947   38.3688   29.3169 C   0  0  0  0  0  0  0  0  0  0  0  0
  -20.9797   38.7346   30.7199 N   0  0  0  0  0  0  0  0  0  0  0  0
  -22.1165   36.1688   29.6350 C   0  0  0  0  0  0  0  0  0  0  0  0
  -20.8378   30.2838   29.0734 C   0  0  0  0  0  0  0  0  0  0  0  0
  -20.1702   29.1662   28.5882 C   0  0  0  0  0  0  0  0  0  0  0  0
  -19.4550   29.2370   27.4116 C   0  0  0  0  0  0  0  0  0  0  0  0
  -17.4782   29.4346   25.0888 S   0  0  0  0  0  0  0  0  0  0  0  0
  1  2  1  0  0  0  0
  2  3  1  0  0  0  0
  3  4  1  0  0  0  0
  4  5  2  0  0  0  0
  5  6  1  0  0  0  0
  6  7  2  0  0  0  0
  7  8  1  0  0  0  0
  8  9  1  0  0  0  0
  9 10  1  0  0  0  0
 10 11  1  0  0  0  0
  8 12  1  0  0  0  0
  6 13  1  0  0  0  0
 12 13  1  0  0  0  0
 13 14  2  0  0  0  0
 14 15  1  0  0  0  0
 15 16  2  0  0  0  0
 16 17  1  0  0  0  0
 17 18  1  0  0  0  0
 12 19  2  0  0  0  0
 16 19  1  0  0  0  0
  5 20  1  0  0  0  0
 20 21  2  0  0  0  0
  3 22  2  0  0  0  0
 21 22  1  0  0  0  0
  2 23  2  0  0  0  0
 24 25  1  0  0  0  0
 25 26  1  0  0  0  0
 26 27  1  0  0  0  0
 27 28  2  0  0  0  0
 28 29  1  0  0  0  0
 29 30  2  0  0  0  0
 30 31  1  0  0  0  0
 31 32  1  0  0  0  0
 32 33  1  0  0  0  0
 33 34  1  0  0  0  0
 31 35  1  0  0  0  0
 29 36  1  0  0  0  0
 35 36  1  0  0  0  0
 36 37  2  0  0  0  0
 37 38  1  0  0  0  0
 38 39  2  0  0  0  0
 39 40  1  0  0  0  0
 40 41  1  0  0  0  0
 35 42  2  0  0  0  0
 39 42  1  0  0  0  0
 28 43  1  0  0  0  0
 43 44  2  0  0  0  0
 26 45  2  0  0  0  0
 44 45  1  0  0  0  0
 25 46  2  0  0  0  0
 47 48  1  0  0  0  0
 48 49  1  0  0  0  0
 49 50  1  0  0  0  0
 50 51  2  0  0  0  0
 51 52  1  0  0  0  0
 52 53  2  0  0  0  0
 53 54  1  0  0  0  0
 54 55  1  0  0  0  0
 55 56  1  0  0  0  0
 56 57  1  0  0  0  0
 54 58  1  0  0  0  0
 52 59  1  0  0  0  0
 58 59  1  0  0  0  0
 59 60  2  0  0  0  0
 60 61  1  0  0  0  0
 61 62  2  0  0  0  0
 62 63  1  0  0  0  0
 63 64  1  0  0  0  0
 58 65  2  0  0  0  0
 62 65  1  0  0  0  0
 51 66  1  0  0  0  0
 66 67  2  0  0  0  0
 49 68  2  0  0  0  0
 67 68  1  0  0  0  0
 48 69  2  0  0  0  0
 70 71  1  0  0  0  0
 71 72  1  0  0  0  0
 72 73  1  0  0  0  0
 73 74  2  0  0  0  0
 74 75  1  0  0  0  0
 75 76  2  0  0  0  0
 76 77  1  0  0  0  0
 77 78  1  0  0  0  0
 78 79  1  0  0  0  0
 79 80  1  0  0  0  0
 77 81  1  0  0  0  0
 75 82  1  0  0  0  0
 81 82  1  0  0  0  0
 82 83  2  0  0  0  0
 83 84  1  0  0  0  0
 84 85  2  0  0  0  0
 85 86  1  0  0  0  0
 86 87  1  0  0  0  0
 81 88  2  0  0  0  0
 85 88  1  0  0  0  0
 74 89  1  0  0  0  0
 89 90  2  0  0  0  0
 72 91  2  0  0  0  0
 90 91  1  0  0  0  0
 71 92  2  0  0  0  0
M  END
$$$$
