7M96
  PyMOL3.1          3D                             0

 25 27  0  0  0  0  0  0  0  0999 V2000
    0.7054   -0.6874  -31.9111 N   0  0  0  0  0  0  0  0  0  0  0  0
    1.9925   -1.3708  -31.9481 C   0  0  0  0  0  0  0  0  0  0  0  0
   -1.7618    6.8305  -27.6013 O   0  0  0  0  0  0  0  0  0  0  0  0
   -0.3072   -1.1827  -32.6952 C   0  0  0  0  0  0  0  0  0  0  0  0
    0.3858    4.9670  -28.7332 N   0  0  0  0  0  0  0  0  0  0  0  0
   -0.0803   -1.9988  -33.5760 O   0  0  0  0  0  0  0  0  0  0  0  0
   -1.7008   -0.6893  -32.4237 C   0  0  0  0  0  0  0  0  0  0  0  0
   -1.6966    0.8002  -32.1511 C   0  0  0  0  0  0  0  0  0  0  0  0
   -0.6410    1.1623  -31.1390 C   0  0  0  0  0  0  0  0  0  0  0  0
    0.5481    0.4302  -31.0698 C   0  0  0  0  0  0  0  0  0  0  0  0
    1.5314    0.7859  -30.1525 C   0  0  0  0  0  0  0  0  0  0  0  0
    1.3181    1.8506  -29.2928 C   0  0  0  0  0  0  0  0  0  0  0  0
    0.1353    2.5758  -29.3228 C   0  0  0  0  0  0  0  0  0  0  0  0
   -0.1365    3.6634  -28.3114 C   0  0  0  0  0  0  0  0  0  0  0  0
    0.4676    6.0789  -27.7574 C   0  0  0  0  0  0  0  0  0  0  0  0
    1.9086    6.5891  -27.7299 C   0  0  0  0  0  0  0  0  0  0  0  0
   -0.5204    7.1759  -28.2036 C   0  0  0  0  0  0  0  0  0  0  0  0
   -0.1321    8.5877  -27.8109 C   0  0  0  0  0  0  0  0  0  0  0  0
   -0.4075    9.0690  -26.5399 C   0  0  0  0  0  0  0  0  0  0  0  0
   -0.0916   10.3725  -26.1934 C   0  0  0  0  0  0  0  0  0  0  0  0
    0.5044   11.2084  -27.1107 C   0  0  0  0  0  0  0  0  0  0  0  0
    0.7854   10.7430  -28.3757 C   0  0  0  0  0  0  0  0  0  0  0  0
    0.4690    9.4403  -28.7259 C   0  0  0  0  0  0  0  0  0  0  0  0
    0.1271    5.5640  -26.3583 C   0  0  0  0  0  0  0  0  0  0  0  0
   -0.8265    2.2263  -30.2621 C   0  0  0  0  0  0  0  0  0  0  0  0
  1  2  1  0  0  0  0
  1  4  1  0  0  0  0
  4  6  2  0  0  0  0
  4  7  1  0  0  0  0
  7  8  1  0  0  0  0
  8  9  1  0  0  0  0
  1 10  1  0  0  0  0
  9 10  1  0  0  0  0
 10 11  2  0  0  0  0
 11 12  1  0  0  0  0
 12 13  2  0  0  0  0
  5 14  1  0  0  0  0
 13 14  1  0  0  0  0
  5 15  1  0  0  0  0
 15 16  1  0  0  0  0
  3 17  1  0  0  0  0
 15 17  1  0  0  0  0
 17 18  1  0  0  0  0
 18 19  2  0  0  0  0
 19 20  1  0  0  0  0
 20 21  2  0  0  0  0
 21 22  1  0  0  0  0
 18 23  1  0  0  0  0
 22 23  2  0  0  0  0
 15 24  1  0  0  0  0
  9 25  2  0  0  0  0
 13 25  1  0  0  0  0
M  END
$$$$
