7M96
  PyMOL3.1          3D                             0

 25 27  0  0  0  0  0  0  0  0999 V2000
  -28.3469  -45.1755  -15.9786 N   0  0  0  0  0  0  0  0  0  0  0  0
  -28.3808  -44.0600  -16.9183 C   0  0  0  0  0  0  0  0  0  0  0  0
  -33.4690  -51.7155  -13.7297 O   0  0  0  0  0  0  0  0  0  0  0  0
  -27.3901  -45.1542  -14.9958 C   0  0  0  0  0  0  0  0  0  0  0  0
  -32.1764  -50.2596  -15.2760 N   0  0  0  0  0  0  0  0  0  0  0  0
  -26.5957  -44.2303  -14.9068 O   0  0  0  0  0  0  0  0  0  0  0  0
  -27.3475  -46.3162  -14.0383 C   0  0  0  0  0  0  0  0  0  0  0  0
  -28.7310  -46.8692  -13.7589 C   0  0  0  0  0  0  0  0  0  0  0  0
  -29.4994  -47.0726  -15.0398 C   0  0  0  0  0  0  0  0  0  0  0  0
  -29.2776  -46.2182  -16.1222 C   0  0  0  0  0  0  0  0  0  0  0  0
  -29.9640  -46.4144  -17.3157 C   0  0  0  0  0  0  0  0  0  0  0  0
  -30.8608  -47.4631  -17.4278 C   0  0  0  0  0  0  0  0  0  0  0  0
  -31.0967  -48.3279  -16.3685 C   0  0  0  0  0  0  0  0  0  0  0  0
  -32.0571  -49.4835  -16.5141 C   0  0  0  0  0  0  0  0  0  0  0  0
  -31.6714  -51.6501  -15.2619 C   0  0  0  0  0  0  0  0  0  0  0  0
  -32.0952  -52.3423  -16.5584 C   0  0  0  0  0  0  0  0  0  0  0  0
  -32.2418  -52.3711  -14.0267 C   0  0  0  0  0  0  0  0  0  0  0  0
  -32.4457  -53.8628  -14.1924 C   0  0  0  0  0  0  0  0  0  0  0  0
  -31.3633  -54.7325  -14.2094 C   0  0  0  0  0  0  0  0  0  0  0  0
  -31.5553  -56.0987  -14.3373 C   0  0  0  0  0  0  0  0  0  0  0  0
  -32.8282  -56.6122  -14.4490 C   0  0  0  0  0  0  0  0  0  0  0  0
  -33.9110  -55.7616  -14.4338 C   0  0  0  0  0  0  0  0  0  0  0  0
  -33.7227  -54.3951  -14.3067 C   0  0  0  0  0  0  0  0  0  0  0  0
  -30.1478  -51.5745  -15.1770 C   0  0  0  0  0  0  0  0  0  0  0  0
  -30.4114  -48.1132  -15.1783 C   0  0  0  0  0  0  0  0  0  0  0  0
  1  2  1  0  0  0  0
  1  4  1  0  0  0  0
  4  6  2  0  0  0  0
  4  7  1  0  0  0  0
  7  8  1  0  0  0  0
  8  9  1  0  0  0  0
  1 10  1  0  0  0  0
  9 10  1  0  0  0  0
 10 11  2  0  0  0  0
 11 12  1  0  0  0  0
 12 13  2  0  0  0  0
  5 14  1  0  0  0  0
 13 14  1  0  0  0  0
  5 15  1  0  0  0  0
 15 16  1  0  0  0  0
  3 17  1  0  0  0  0
 15 17  1  0  0  0  0
 17 18  1  0  0  0  0
 18 19  2  0  0  0  0
 19 20  1  0  0  0  0
 20 21  2  0  0  0  0
 21 22  1  0  0  0  0
 18 23  1  0  0  0  0
 22 23  2  0  0  0  0
 15 24  1  0  0  0  0
  9 25  2  0  0  0  0
 13 25  1  0  0  0  0
M  END
$$$$
