7M96
  PyMOL3.1          3D                             0

 25 27  0  0  0  0  0  0  0  0999 V2000
   -2.2861  -19.3648  -29.8911 N   0  0  0  0  0  0  0  0  0  0  0  0
   -2.1804  -18.6670  -28.6155 C   0  0  0  0  0  0  0  0  0  0  0  0
    1.6574  -26.7278  -32.8368 O   0  0  0  0  0  0  0  0  0  0  0  0
   -3.2664  -18.9616  -30.7643 C   0  0  0  0  0  0  0  0  0  0  0  0
    1.0096  -24.8679  -30.5467 N   0  0  0  0  0  0  0  0  0  0  0  0
   -4.0434  -18.0662  -30.4683 O   0  0  0  0  0  0  0  0  0  0  0  0
   -3.3481  -19.6555  -32.0964 C   0  0  0  0  0  0  0  0  0  0  0  0
   -2.9766  -21.1210  -31.9903 C   0  0  0  0  0  0  0  0  0  0  0  0
   -1.6997  -21.2960  -31.2106 C   0  0  0  0  0  0  0  0  0  0  0  0
   -1.3895  -20.4110  -30.1746 C   0  0  0  0  0  0  0  0  0  0  0  0
   -0.2151  -20.5734  -29.4486 C   0  0  0  0  0  0  0  0  0  0  0  0
    0.6489  -21.6093  -29.7614 C   0  0  0  0  0  0  0  0  0  0  0  0
    0.3700  -22.4943  -30.7931 C   0  0  0  0  0  0  0  0  0  0  0  0
    1.3454  -23.5833  -31.1692 C   0  0  0  0  0  0  0  0  0  0  0  0
    1.9693  -25.9938  -30.6220 C   0  0  0  0  0  0  0  0  0  0  0  0
    3.2876  -25.5186  -31.2343 C   0  0  0  0  0  0  0  0  0  0  0  0
    1.3536  -27.1004  -31.4972 C   0  0  0  0  0  0  0  0  0  0  0  0
    1.8587  -28.4973  -31.2118 C   0  0  0  0  0  0  0  0  0  0  0  0
    1.0662  -29.4154  -30.5363 C   0  0  0  0  0  0  0  0  0  0  0  0
    1.5176  -30.7035  -30.3014 C   0  0  0  0  0  0  0  0  0  0  0  0
    2.7651  -31.0906  -30.7369 C   0  0  0  0  0  0  0  0  0  0  0  0
    3.5632  -30.1911  -31.4075 C   0  0  0  0  0  0  0  0  0  0  0  0
    3.1145  -28.9025  -31.6439 C   0  0  0  0  0  0  0  0  0  0  0  0
    2.2693  -26.4947  -29.2088 C   0  0  0  0  0  0  0  0  0  0  0  0
   -0.8123  -22.3262  -31.5021 C   0  0  0  0  0  0  0  0  0  0  0  0
  1  2  1  0  0  0  0
  1  4  1  0  0  0  0
  4  6  2  0  0  0  0
  4  7  1  0  0  0  0
  7  8  1  0  0  0  0
  8  9  1  0  0  0  0
  1 10  1  0  0  0  0
  9 10  1  0  0  0  0
 10 11  2  0  0  0  0
 11 12  1  0  0  0  0
 12 13  2  0  0  0  0
  5 14  1  0  0  0  0
 13 14  1  0  0  0  0
  5 15  1  0  0  0  0
 15 16  1  0  0  0  0
  3 17  1  0  0  0  0
 15 17  1  0  0  0  0
 17 18  1  0  0  0  0
 18 19  2  0  0  0  0
 19 20  1  0  0  0  0
 20 21  2  0  0  0  0
 21 22  1  0  0  0  0
 18 23  1  0  0  0  0
 22 23  2  0  0  0  0
 15 24  1  0  0  0  0
  9 25  2  0  0  0  0
 13 25  1  0  0  0  0
M  END
$$$$
