7M96
  PyMOL3.1          3D                             0

 25 27  0  0  0  0  0  0  0  0999 V2000
  -31.3052  -26.2026  -13.9790 N   0  0  0  0  0  0  0  0  0  0  0  0
  -32.4195  -27.1002  -13.7201 C   0  0  0  0  0  0  0  0  0  0  0  0
  -29.9884  -18.5248  -18.0558 O   0  0  0  0  0  0  0  0  0  0  0  0
  -30.1476  -26.3841  -13.2575 C   0  0  0  0  0  0  0  0  0  0  0  0
  -31.9390  -20.7021  -17.2757 N   0  0  0  0  0  0  0  0  0  0  0  0
  -30.0855  -27.2399  -12.3854 O   0  0  0  0  0  0  0  0  0  0  0  0
  -28.9759  -25.5039  -13.5781 C   0  0  0  0  0  0  0  0  0  0  0  0
  -29.4121  -24.1017  -13.9493 C   0  0  0  0  0  0  0  0  0  0  0  0
  -30.5381  -24.1327  -14.9550 C   0  0  0  0  0  0  0  0  0  0  0  0
  -31.4494  -25.1870  -14.9411 C   0  0  0  0  0  0  0  0  0  0  0  0
  -32.4986  -25.2120  -15.8570 C   0  0  0  0  0  0  0  0  0  0  0  0
  -32.6299  -24.1869  -16.7775 C   0  0  0  0  0  0  0  0  0  0  0  0
  -31.7325  -23.1306  -16.8145 C   0  0  0  0  0  0  0  0  0  0  0  0
  -31.8588  -22.0462  -17.8562 C   0  0  0  0  0  0  0  0  0  0  0  0
  -32.1029  -19.5660  -18.2120 C   0  0  0  0  0  0  0  0  0  0  0  0
  -31.5431  -19.9601  -19.5797 C   0  0  0  0  0  0  0  0  0  0  0  0
  -31.3445  -18.3437  -17.6613 C   0  0  0  0  0  0  0  0  0  0  0  0
  -31.8636  -17.0027  -18.1346 C   0  0  0  0  0  0  0  0  0  0  0  0
  -32.5291  -16.1511  -17.2637 C   0  0  0  0  0  0  0  0  0  0  0  0
  -32.9831  -14.9139  -17.6917 C   0  0  0  0  0  0  0  0  0  0  0  0
  -32.7816  -14.5140  -18.9936 C   0  0  0  0  0  0  0  0  0  0  0  0
  -32.1242  -15.3483  -19.8691 C   0  0  0  0  0  0  0  0  0  0  0  0
  -31.6663  -16.5843  -19.4435 C   0  0  0  0  0  0  0  0  0  0  0  0
  -33.5913  -19.2621  -18.3874 C   0  0  0  0  0  0  0  0  0  0  0  0
  -30.6909  -23.1172  -15.8921 C   0  0  0  0  0  0  0  0  0  0  0  0
  1  2  1  0  0  0  0
  1  4  1  0  0  0  0
  4  6  2  0  0  0  0
  4  7  1  0  0  0  0
  7  8  1  0  0  0  0
  8  9  1  0  0  0  0
  1 10  1  0  0  0  0
  9 10  1  0  0  0  0
 10 11  2  0  0  0  0
 11 12  1  0  0  0  0
 12 13  2  0  0  0  0
  5 14  1  0  0  0  0
 13 14  1  0  0  0  0
  5 15  1  0  0  0  0
 15 16  1  0  0  0  0
  3 17  1  0  0  0  0
 15 17  1  0  0  0  0
 17 18  1  0  0  0  0
 18 19  2  0  0  0  0
 19 20  1  0  0  0  0
 20 21  2  0  0  0  0
 21 22  1  0  0  0  0
 18 23  1  0  0  0  0
 22 23  2  0  0  0  0
 15 24  1  0  0  0  0
  9 25  2  0  0  0  0
 13 25  1  0  0  0  0
M  END
$$$$
