8C1E
  PyMOL3.1          3D                             0

 22 24  0  0  0  0  0  0  0  0999 V2000
   38.7140   78.7950   -3.3100 N   0  0  0  0  0  0  0  0  0  0  0  0
   34.2620   81.0620  -11.6600 C   0  0  0  0  0  0  0  0  0  0  0  0
   36.3660   79.1490  -11.5820 O   0  0  0  0  0  0  0  0  0  0  0  0
   37.7470   82.0280   -2.0840 Cl  0  0  0  0  0  0  0  0  0  0  0  0
   34.7950   81.2190  -10.2880 C   0  0  0  0  0  0  0  0  0  0  0  0
   32.7590   82.3980   -9.3590 N   0  0  0  0  0  0  0  0  0  0  0  0
   38.1230   80.3650  -11.0320 O   0  0  0  0  0  0  0  0  0  0  0  0
   36.0380   80.7750   -9.9070 C   0  0  0  0  0  0  0  0  0  0  0  0
   36.5300   80.9220   -8.5970 C   0  0  0  0  0  0  0  0  0  0  0  0
   35.7720   81.5300   -7.6290 C   0  0  0  0  0  0  0  0  0  0  0  0
   36.2660   81.6670   -6.2690 C   0  0  0  0  0  0  0  0  0  0  0  0
   36.0300   82.8350   -5.5510 C   0  0  0  0  0  0  0  0  0  0  0  0
   36.4950   82.9550   -4.2490 C   0  0  0  0  0  0  0  0  0  0  0  0
   37.1880   81.9000   -3.6870 C   0  0  0  0  0  0  0  0  0  0  0  0
   37.4300   80.7360   -4.3950 C   0  0  0  0  0  0  0  0  0  0  0  0
   36.9670   80.6160   -5.6970 C   0  0  0  0  0  0  0  0  0  0  0  0
   38.1390   79.6700   -3.7910 C   0  0  0  0  0  0  0  0  0  0  0  0
   34.5040   82.0050   -7.9690 C   0  0  0  0  0  0  0  0  0  0  0  0
   33.4830   82.6760   -7.2340 C   0  0  0  0  0  0  0  0  0  0  0  0
   32.4360   82.9020   -8.1010 C   0  0  0  0  0  0  0  0  0  0  0  0
   34.0330   81.8420   -9.2940 C   0  0  0  0  0  0  0  0  0  0  0  0
   36.9460   80.1210  -10.8530 C   0  0  0  0  0  0  0  0  0  0  0  0
  2  5  1  0  0  0  0
  5  8  2  0  0  0  0
  8  9  1  0  0  0  0
  9 10  2  0  0  0  0
 10 11  1  0  0  0  0
 11 12  1  0  0  0  0
 12 13  2  0  0  0  0
  4 14  1  0  0  0  0
 13 14  1  0  0  0  0
 14 15  2  0  0  0  0
 11 16  2  0  0  0  0
 15 16  1  0  0  0  0
  1 17  3  0  0  0  0
 15 17  1  0  0  0  0
 10 18  1  0  0  0  0
 18 19  1  0  0  0  0
  6 20  1  0  0  0  0
 19 20  2  0  0  0  0
  5 21  1  0  0  0  0
  6 21  1  0  0  0  0
 18 21  2  0  0  0  0
  3 22  2  0  0  0  0
  7 22  1  0  0  0  0
  8 22  1  0  0  0  0
M  END
$$$$
