8I5G
  PyMOL3.1          3D                             0

 31 34  0  0  0  0  0  0  0  0999 V2000
   90.0240  133.9520  140.7160 Cl  0  0  0  0  0  0  0  0  0  0  0  0
   82.2120  137.1530  138.0990 Cl  0  0  0  0  0  0  0  0  0  0  0  0
   91.8590  135.3350  135.7030 S   0  0  0  0  0  0  0  0  0  0  0  0
   90.7090  130.9340  133.2850 S   0  0  0  0  0  0  0  0  0  0  0  0
   87.6320  135.5090  139.9570 O   0  0  0  0  0  0  0  0  0  0  0  0
   92.4160  136.8600  135.4100 O   0  0  0  0  0  0  0  0  0  0  0  0
   93.1210  134.4280  136.2500 O   0  0  0  0  0  0  0  0  0  0  0  0
   91.2470  134.6500  134.2620 N   0  0  0  0  0  0  0  0  0  0  0  0
   88.0540  139.0480  142.0770 N   0  0  0  0  0  0  0  0  0  0  0  0
   87.6160  140.0200  141.2850 N   0  0  0  0  0  0  0  0  0  0  0  0
   87.7810  136.6140  142.3430 N   0  0  0  0  0  0  0  0  0  0  0  0
   91.4160  132.3450  135.1440 N   0  0  0  0  0  0  0  0  0  0  0  0
   90.5650  135.3970  136.9780 C   0  0  0  0  0  0  0  0  0  0  0  0
   85.8760  137.1610  139.8090 C   0  0  0  0  0  0  0  0  0  0  0  0
   86.3600  135.8950  139.5110 C   0  0  0  0  0  0  0  0  0  0  0  0
   88.6000  135.4870  138.9370 C   0  0  0  0  0  0  0  0  0  0  0  0
   86.7130  138.1600  140.6040 C   0  0  0  0  0  0  0  0  0  0  0  0
   90.7580  134.7460  138.1840 C   0  0  0  0  0  0  0  0  0  0  0  0
   89.3910  136.0950  136.7510 C   0  0  0  0  0  0  0  0  0  0  0  0
   89.7770  134.7920  139.1600 C   0  0  0  0  0  0  0  0  0  0  0  0
   88.4110  136.1430  137.7290 C   0  0  0  0  0  0  0  0  0  0  0  0
   84.6160  137.5390  139.3740 C   0  0  0  0  0  0  0  0  0  0  0  0
   87.5400  137.9010  141.7190 C   0  0  0  0  0  0  0  0  0  0  0  0
   85.5700  135.0080  138.7950 C   0  0  0  0  0  0  0  0  0  0  0  0
   86.8030  139.5490  140.3760 C   0  0  0  0  0  0  0  0  0  0  0  0
   83.8340  136.6560  138.6520 C   0  0  0  0  0  0  0  0  0  0  0  0
   84.3120  135.3890  138.3600 C   0  0  0  0  0  0  0  0  0  0  0  0
   91.1220  133.2080  134.1300 C   0  0  0  0  0  0  0  0  0  0  0  0
   90.6870  132.5920  132.9440 C   0  0  0  0  0  0  0  0  0  0  0  0
   91.2540  131.0440  134.8800 C   0  0  0  0  0  0  0  0  0  0  0  0
   89.2000  136.7380  135.5640 F   0  0  0  0  0  0  0  0  0  0  0  0
  3  6  2  0  0  0  0
  3  7  2  0  0  0  0
  3  8  1  0  0  0  0
  9 10  1  0  0  0  0
  3 13  1  0  0  0  0
  5 15  1  0  0  0  0
 14 15  2  0  0  0  0
  5 16  1  0  0  0  0
 14 17  1  0  0  0  0
 13 18  2  0  0  0  0
 13 19  1  0  0  0  0
  1 20  1  0  0  0  0
 16 20  2  0  0  0  0
 18 20  1  0  0  0  0
 16 21  1  0  0  0  0
 19 21  2  0  0  0  0
 14 22  1  0  0  0  0
  9 23  1  0  0  0  0
 11 23  1  0  0  0  0
 17 23  2  0  0  0  0
 15 24  1  0  0  0  0
 10 25  2  0  0  0  0
 17 25  1  0  0  0  0
  2 26  1  0  0  0  0
 22 26  2  0  0  0  0
 24 27  2  0  0  0  0
 26 27  1  0  0  0  0
  8 28  1  0  0  0  0
 12 28  1  0  0  0  0
  4 29  1  0  0  0  0
 28 29  2  0  0  0  0
  4 30  1  0  0  0  0
 12 30  2  0  0  0  0
 19 31  1  0  0  0  0
M  END
$$$$
