7OY0
  PyMOL3.1          3D                             0

 22 25  0  0  0  0  0  0  0  0999 V2000
   79.2740  -56.8310   17.8810 O   0  0  0  0  0  0  0  0  0  0  0  0
   78.7630  -55.6920   18.4230 C   0  0  0  0  0  0  0  0  0  0  0  0
   78.8440  -54.4970   17.7140 C   0  0  0  0  0  0  0  0  0  0  0  0
   78.3230  -53.3270   18.2510 C   0  0  0  0  0  0  0  0  0  0  0  0
   77.7160  -53.3190   19.5140 C   0  0  0  0  0  0  0  0  0  0  0  0
   77.2080  -52.0800   19.9790 N   0  0  0  0  0  0  0  0  0  0  0  0
   76.7560  -51.8080   21.2720 C   0  0  0  0  0  0  0  0  0  0  0  0
   77.1650  -52.3470   22.3830 N   0  0  0  0  0  0  0  0  0  0  0  0
   76.5960  -51.9260   23.5110 C   0  0  0  0  0  0  0  0  0  0  0  0
   75.6680  -50.9640   23.3630 C   0  0  0  0  0  0  0  0  0  0  0  0
   75.5270  -50.5960   21.6500 S   0  0  0  0  0  0  0  0  0  0  0  0
   76.9480  -52.4610   24.8430 C   0  0  0  0  0  0  0  0  0  0  0  0
   76.0680  -52.6420   25.8740 C   0  0  0  0  0  0  0  0  0  0  0  0
   76.7310  -53.1370   26.9110 N   0  0  0  0  0  0  0  0  0  0  0  0
   78.0100  -53.2890   26.5910 C   0  0  0  0  0  0  0  0  0  0  0  0
   79.1210  -53.7720   27.3190 C   0  0  0  0  0  0  0  0  0  0  0  0
   80.3470  -53.8150   26.7120 C   0  0  0  0  0  0  0  0  0  0  0  0
   80.5000  -53.3830   25.3770 C   0  0  0  0  0  0  0  0  0  0  0  0
   79.4270  -52.9210   24.6910 C   0  0  0  0  0  0  0  0  0  0  0  0
   78.1880  -52.8720   25.2860 N   0  0  0  0  0  0  0  0  0  0  0  0
   77.6320  -54.5360   20.2170 C   0  0  0  0  0  0  0  0  0  0  0  0
   78.1530  -55.7050   19.6770 C   0  0  0  0  0  0  0  0  0  0  0  0
  1  2  1  0  0  0  0
  2  3  4  0  0  0  0
  2 22  4  0  0  0  0
  3  4  4  0  0  0  0
  4  5  4  0  0  0  0
  5  6  1  0  0  0  0
  5 21  4  0  0  0  0
  6  7  1  0  0  0  0
  7  8  4  0  0  0  0
  7 11  4  0  0  0  0
  8  9  4  0  0  0  0
  9 10  4  0  0  0  0
 10 11  4  0  0  0  0
  9 12  1  0  0  0  0
 12 13  4  0  0  0  0
 12 20  4  0  0  0  0
 13 14  4  0  0  0  0
 14 15  4  0  0  0  0
 15 16  4  0  0  0  0
 15 20  4  0  0  0  0
 16 17  4  0  0  0  0
 17 18  4  0  0  0  0
 18 19  4  0  0  0  0
 19 20  4  0  0  0  0
 21 22  4  0  0  0  0
M  END
$$$$
