7UKZ
  PyMOL3.1          3D                             0

 28 31  0  0  0  0  0  0  0  0999 V2000
   26.0770    7.9620   48.9300 C   0  0  0  0  0  0  0  0  0  0  0  0
   26.6860    6.7870   48.1630 C   0  0  0  0  0  0  0  0  0  0  0  0
   27.6500    7.0110   47.1850 C   0  0  0  0  0  0  0  0  0  0  0  0
   28.2570    5.9650   46.4350 C   0  0  0  0  0  0  0  0  0  0  0  0
   27.9170    4.5890   46.6310 C   0  0  0  0  0  0  0  0  0  0  0  0
   26.9190    4.3280   47.6370 C   0  0  0  0  0  0  0  0  0  0  0  0
   26.3110    5.4110   48.3950 C   0  0  0  0  0  0  0  0  0  0  0  0
   25.3330    5.1220   49.3770 N   0  0  0  0  0  0  0  0  0  0  0  0
   24.8920    3.8220   49.6870 C   0  0  0  0  0  0  0  0  0  0  0  0
   24.0110    3.6790   50.5870 O   0  0  0  0  0  0  0  0  0  0  0  0
   25.4930    2.7400   48.9360 C   0  0  0  0  0  0  0  0  0  0  0  0
   26.4540    2.9480   47.9610 C   0  0  0  0  0  0  0  0  0  0  0  0
   26.8120    1.6320   47.4370 C   0  0  0  0  0  0  0  0  0  0  0  0
   26.1470    0.5770   48.0070 C   0  0  0  0  0  0  0  0  0  0  0  0
   25.0620    1.0880   49.1940 S   0  0  0  0  0  0  0  0  0  0  0  0
   28.5940    3.4800   45.7940 C   0  0  0  0  0  0  0  0  0  0  0  0
   29.7520    2.7590   46.1600 C   0  0  0  0  0  0  0  0  0  0  0  0
   30.3520    1.7500   45.3770 C   0  0  0  0  0  0  0  0  0  0  0  0
   29.8630    1.3370   44.1240 C   0  0  0  0  0  0  0  0  0  0  0  0
   28.7150    2.0490   43.7500 C   0  0  0  0  0  0  0  0  0  0  0  0
   28.1150    3.0570   44.5330 C   0  0  0  0  0  0  0  0  0  0  0  0
   30.5160    0.2290   43.2460 C   0  0  0  0  0  0  0  0  0  0  0  0
   29.4780   -0.5570   42.4270 C   0  0  0  0  0  0  0  0  0  0  0  0
   31.6130    0.7620   42.2620 C   0  0  0  0  0  0  0  0  0  0  0  0
   32.2130    2.1020   42.6580 N   0  0  0  0  0  0  0  0  0  0  0  0
   33.7000    1.9840   42.5610 C   0  0  0  0  0  0  0  0  0  0  0  0
   31.7880    3.1750   41.6960 C   0  0  0  0  0  0  0  0  0  0  0  0
   29.2010    6.2160   45.4820 O   0  0  0  0  0  0  0  0  0  0  0  0
  1  2  1  0  0  0  0
  2  3  1  0  0  0  0
  3  4  2  0  0  0  0
  4  5  1  0  0  0  0
  5  6  2  0  0  0  0
  2  7  2  0  0  0  0
  6  7  1  0  0  0  0
  7  8  1  0  0  0  0
  8  9  1  0  0  0  0
  9 10  2  0  0  0  0
  9 11  1  0  0  0  0
  6 12  1  0  0  0  0
 11 12  2  0  0  0  0
 12 13  1  0  0  0  0
 13 14  2  0  0  0  0
 11 15  1  0  0  0  0
 14 15  1  0  0  0  0
  5 16  1  0  0  0  0
 16 17  2  0  0  0  0
 17 18  1  0  0  0  0
 18 19  2  0  0  0  0
 19 20  1  0  0  0  0
 16 21  1  0  0  0  0
 20 21  2  0  0  0  0
 19 22  1  0  0  0  0
 22 23  1  0  0  0  0
 22 24  1  0  0  0  0
 24 25  1  0  0  0  0
 25 26  1  0  0  0  0
 25 27  1  0  0  0  0
  4 28  1  0  0  0  0
M  END
$$$$
