7UKZ
  PyMOL3.1          3D                             0

 28 31  0  0  0  0  0  0  0  0999 V2000
   80.0730   18.2370   53.3420 C   0  0  0  0  0  0  0  0  0  0  0  0
   81.4670   18.1070   53.9600 C   0  0  0  0  0  0  0  0  0  0  0  0
   81.7200   17.1340   54.9200 C   0  0  0  0  0  0  0  0  0  0  0  0
   82.9940   16.9570   55.5260 C   0  0  0  0  0  0  0  0  0  0  0  0
   84.1240   17.7730   55.2010 C   0  0  0  0  0  0  0  0  0  0  0  0
   83.8840   18.8050   54.2220 C   0  0  0  0  0  0  0  0  0  0  0  0
   82.5760   18.9620   53.5990 C   0  0  0  0  0  0  0  0  0  0  0  0
   82.3730   19.9700   52.6260 N   0  0  0  0  0  0  0  0  0  0  0  0
   83.3740   20.8590   52.1950 C   0  0  0  0  0  0  0  0  0  0  0  0
   83.0790   21.7250   51.3170 O   0  0  0  0  0  0  0  0  0  0  0  0
   84.6780   20.7040   52.8020 C   0  0  0  0  0  0  0  0  0  0  0  0
   84.9520   19.7420   53.7600 C   0  0  0  0  0  0  0  0  0  0  0  0
   86.3570   19.9010   54.1210 C   0  0  0  0  0  0  0  0  0  0  0  0
   87.0200   20.9070   53.4670 C   0  0  0  0  0  0  0  0  0  0  0  0
   86.0130   21.7160   52.3810 S   0  0  0  0  0  0  0  0  0  0  0  0
   85.4810   17.5530   55.9100 C   0  0  0  0  0  0  0  0  0  0  0  0
   86.3500   16.4580   55.7140 C   0  0  0  0  0  0  0  0  0  0  0  0
   87.5760   16.2710   56.3890 C   0  0  0  0  0  0  0  0  0  0  0  0
   88.0820   17.1610   57.3550 C   0  0  0  0  0  0  0  0  0  0  0  0
   87.2220   18.2470   57.5660 C   0  0  0  0  0  0  0  0  0  0  0  0
   85.9980   18.4300   56.8920 C   0  0  0  0  0  0  0  0  0  0  0  0
   89.4300   16.9710   58.1110 C   0  0  0  0  0  0  0  0  0  0  0  0
   90.1110   18.3120   58.4310 C   0  0  0  0  0  0  0  0  0  0  0  0
   89.3020   16.1620   59.4470 C   0  0  0  0  0  0  0  0  0  0  0  0
   88.6260   14.8070   59.3070 N   0  0  0  0  0  0  0  0  0  0  0  0
   89.3760   13.8340   60.1590 C   0  0  0  0  0  0  0  0  0  0  0  0
   87.2190   14.8650   59.8310 C   0  0  0  0  0  0  0  0  0  0  0  0
   83.2060   15.9930   56.4690 O   0  0  0  0  0  0  0  0  0  0  0  0
  1  2  1  0  0  0  0
  2  3  1  0  0  0  0
  3  4  2  0  0  0  0
  4  5  1  0  0  0  0
  5  6  2  0  0  0  0
  2  7  2  0  0  0  0
  6  7  1  0  0  0  0
  7  8  1  0  0  0  0
  8  9  1  0  0  0  0
  9 10  2  0  0  0  0
  9 11  1  0  0  0  0
  6 12  1  0  0  0  0
 11 12  2  0  0  0  0
 12 13  1  0  0  0  0
 13 14  2  0  0  0  0
 11 15  1  0  0  0  0
 14 15  1  0  0  0  0
  5 16  1  0  0  0  0
 16 17  2  0  0  0  0
 17 18  1  0  0  0  0
 18 19  2  0  0  0  0
 19 20  1  0  0  0  0
 16 21  1  0  0  0  0
 20 21  2  0  0  0  0
 19 22  1  0  0  0  0
 22 23  1  0  0  0  0
 22 24  1  0  0  0  0
 24 25  1  0  0  0  0
 25 26  1  0  0  0  0
 25 27  1  0  0  0  0
  4 28  1  0  0  0  0
M  END
$$$$
