7UKZ
  PyMOL3.1          3D                             0

 28 31  0  0  0  0  0  0  0  0999 V2000
   77.3210  -10.8590    9.4850 C   0  0  0  0  0  0  0  0  0  0  0  0
   78.6540  -10.9150    8.7360 C   0  0  0  0  0  0  0  0  0  0  0  0
   78.9290   -9.9970    7.7280 C   0  0  0  0  0  0  0  0  0  0  0  0
   80.1460   -9.9940    6.9910 C   0  0  0  0  0  0  0  0  0  0  0  0
   81.1900  -10.9410    7.2340 C   0  0  0  0  0  0  0  0  0  0  0  0
   80.9310  -11.9050    8.2740 C   0  0  0  0  0  0  0  0  0  0  0  0
   79.6790  -11.8930    9.0170 C   0  0  0  0  0  0  0  0  0  0  0  0
   79.4540  -12.8520   10.0350 N   0  0  0  0  0  0  0  0  0  0  0  0
   80.3810  -13.8490   10.3930 C   0  0  0  0  0  0  0  0  0  0  0  0
   80.0730  -14.6560   11.3210 O   0  0  0  0  0  0  0  0  0  0  0  0
   81.6270  -13.8660    9.6580 C   0  0  0  0  0  0  0  0  0  0  0  0
   81.9160  -12.9600    8.6500 C   0  0  0  0  0  0  0  0  0  0  0  0
   83.2490  -13.2950    8.1550 C   0  0  0  0  0  0  0  0  0  0  0  0
   83.8500  -14.3610    8.7730 C   0  0  0  0  0  0  0  0  0  0  0  0
   82.8680  -15.0240    9.9750 S   0  0  0  0  0  0  0  0  0  0  0  0
   82.4950  -10.9050    6.4080 C   0  0  0  0  0  0  0  0  0  0  0  0
   83.6620  -10.1800    6.7360 C   0  0  0  0  0  0  0  0  0  0  0  0
   84.8400  -10.1580    5.9590 C   0  0  0  0  0  0  0  0  0  0  0  0
   84.9930  -10.8600    4.7500 C   0  0  0  0  0  0  0  0  0  0  0  0
   83.8370  -11.5790    4.4120 C   0  0  0  0  0  0  0  0  0  0  0  0
   82.6610  -11.6010    5.1880 C   0  0  0  0  0  0  0  0  0  0  0  0
   86.2840  -10.8420    3.8790 C   0  0  0  0  0  0  0  0  0  0  0  0
   86.6240  -12.2300    3.3100 C   0  0  0  0  0  0  0  0  0  0  0  0
   86.2340   -9.8260    2.6870 C   0  0  0  0  0  0  0  0  0  0  0  0
   85.1100   -8.8050    2.7770 N   0  0  0  0  0  0  0  0  0  0  0  0
   85.6380   -7.6020    3.4920 C   0  0  0  0  0  0  0  0  0  0  0  0
   84.6940   -8.3580    1.4040 C   0  0  0  0  0  0  0  0  0  0  0  0
   80.3880   -9.0810    6.0050 O   0  0  0  0  0  0  0  0  0  0  0  0
  1  2  1  0  0  0  0
  2  3  1  0  0  0  0
  3  4  2  0  0  0  0
  4  5  1  0  0  0  0
  5  6  2  0  0  0  0
  2  7  2  0  0  0  0
  6  7  1  0  0  0  0
  7  8  1  0  0  0  0
  8  9  1  0  0  0  0
  9 10  2  0  0  0  0
  9 11  1  0  0  0  0
  6 12  1  0  0  0  0
 11 12  2  0  0  0  0
 12 13  1  0  0  0  0
 13 14  2  0  0  0  0
 11 15  1  0  0  0  0
 14 15  1  0  0  0  0
  5 16  1  0  0  0  0
 16 17  2  0  0  0  0
 17 18  1  0  0  0  0
 18 19  2  0  0  0  0
 19 20  1  0  0  0  0
 16 21  1  0  0  0  0
 20 21  2  0  0  0  0
 19 22  1  0  0  0  0
 22 23  1  0  0  0  0
 22 24  1  0  0  0  0
 24 25  1  0  0  0  0
 25 26  1  0  0  0  0
 25 27  1  0  0  0  0
  4 28  1  0  0  0  0
M  END
$$$$
