8GOF
  PyMOL3.1          3D                             0

 31 33  0  0  0  0  0  0  0  0999 V2000
  157.7490  166.3820  152.4710 C   0  0  0  0  0  0  0  0  0  0  0  0
  158.5130  165.2600  152.7180 C   0  0  0  0  0  0  0  0  0  0  0  0
  158.7680  164.8250  154.0050 C   0  0  0  0  0  0  0  0  0  0  0  0
  158.2370  165.4950  155.0910 C   0  0  0  0  0  0  0  0  0  0  0  0
  157.4630  166.6210  154.8590 C   0  0  0  0  0  0  0  0  0  0  0  0
  157.2100  167.0440  153.5640 C   0  0  0  0  0  0  0  0  0  0  0  0
  157.4390  166.8230  151.0690 C   0  0  0  0  0  0  0  0  0  0  0  0
  157.3340  168.3250  150.8020 C   0  0  0  0  0  0  0  0  0  0  0  0
  157.5650  168.4950  149.3370 C   0  0  0  0  0  0  0  0  0  0  0  0
  158.7700  168.5520  148.7030 C   0  0  0  0  0  0  0  0  0  0  0  0
  158.5930  168.6680  147.3650 N   0  0  0  0  0  0  0  0  0  0  0  0
  157.2460  168.6620  147.1170 C   0  0  0  0  0  0  0  0  0  0  0  0
  156.5660  168.5610  148.3140 C   0  0  0  0  0  0  0  0  0  0  0  0
  155.1420  168.5470  148.3030 C   0  0  0  0  0  0  0  0  0  0  0  0
  154.4570  168.4580  149.3320 O   0  0  0  0  0  0  0  0  0  0  0  0
  154.4470  168.6470  147.1160 N   0  0  0  0  0  0  0  0  0  0  0  0
  155.1460  168.7410  145.9870 C   0  0  0  0  0  0  0  0  0  0  0  0
  156.5140  168.7680  145.9670 N   0  0  0  0  0  0  0  0  0  0  0  0
  154.5040  168.8300  144.8220 N   0  0  0  0  0  0  0  0  0  0  0  0
  158.5590  165.0000  156.4710 C   0  0  0  0  0  0  0  0  0  0  0  0
  159.3260  164.0540  156.6300 O   0  0  0  0  0  0  0  0  0  0  0  0
  157.9980  165.6390  157.5010 N   0  0  0  0  0  0  0  0  0  0  0  0
  158.5520  165.5420  158.8450 C   0  0  0  0  0  0  0  0  0  0  0  0
  158.8070  166.9260  159.4560 C   0  0  0  0  0  0  0  0  0  0  0  0
  157.7280  167.9400  159.1210 C   0  0  0  0  0  0  0  0  0  0  0  0
  157.4710  168.9720  160.2050 C   0  0  0  0  0  0  0  0  0  0  0  0
  156.6170  169.8560  159.9890 O   0  0  0  0  0  0  0  0  0  0  0  0
  158.1170  168.8820  161.2670 O   0  0  0  0  0  0  0  0  0  0  0  0
  157.6930  164.6270  159.7390 C   0  0  0  0  0  0  0  0  0  0  0  0
  158.2460  163.6150  160.2130 O   0  0  0  0  0  0  0  0  0  0  0  0
  156.5060  164.9530  159.9270 O   0  0  0  0  0  0  0  0  0  0  0  0
  1  2  2  0  0  0  0
  2  3  1  0  0  0  0
  3  4  2  0  0  0  0
  4  5  1  0  0  0  0
  1  6  1  0  0  0  0
  5  6  2  0  0  0  0
  1  7  1  0  0  0  0
  7  8  1  0  0  0  0
  8  9  1  0  0  0  0
  9 10  2  0  0  0  0
 10 11  1  0  0  0  0
 11 12  1  0  0  0  0
  9 13  1  0  0  0  0
 12 13  2  0  0  0  0
 13 14  1  0  0  0  0
 14 15  2  0  0  0  0
 14 16  1  0  0  0  0
 16 17  2  0  0  0  0
 12 18  1  0  0  0  0
 17 18  1  0  0  0  0
 17 19  1  0  0  0  0
  4 20  1  0  0  0  0
 20 21  2  0  0  0  0
 20 22  1  0  0  0  0
 22 23  1  0  0  0  0
 23 24  1  0  0  0  0
 24 25  1  0  0  0  0
 25 26  1  0  0  0  0
 26 27  2  0  0  0  0
 26 28  1  0  0  0  0
 23 29  1  0  0  0  0
 29 30  2  0  0  0  0
 29 31  1  0  0  0  0
M  END
$$$$
