8SGI
  PyMOL3.1          3D                             0

 27 29  0  0  0  0  0  0  0  0999 V2000
  140.9350  148.0850  157.3880 O   0  0  0  0  0  0  0  0  0  0  0  0
  142.2980  145.5950  152.6520 O   0  0  0  0  0  0  0  0  0  0  0  0
  141.9540  140.1180  152.1360 O   0  0  0  0  0  0  0  0  0  0  0  0
  139.8380  144.4210  151.9540 N   0  0  0  0  0  0  0  0  0  0  0  0
  140.5210  147.2820  158.4890 C   0  0  0  0  0  0  0  0  0  0  0  0
  142.1990  144.2180  152.5270 C   0  0  0  0  0  0  0  0  0  0  0  0
  139.4630  147.9970  159.2600 C   0  0  0  0  0  0  0  0  0  0  0  0
  141.2740  147.4560  156.2160 C   0  0  0  0  0  0  0  0  0  0  0  0
  141.9640  146.1980  153.8270 C   0  0  0  0  0  0  0  0  0  0  0  0
  140.9920  143.6410  152.1750 C   0  0  0  0  0  0  0  0  0  0  0  0
  142.0350  141.4690  152.2650 C   0  0  0  0  0  0  0  0  0  0  0  0
  140.9080  142.2580  152.0470 C   0  0  0  0  0  0  0  0  0  0  0  0
  143.3300  143.4500  152.7360 C   0  0  0  0  0  0  0  0  0  0  0  0
  141.3030  146.0700  156.1480 C   0  0  0  0  0  0  0  0  0  0  0  0
  141.5870  148.2170  155.0970 C   0  0  0  0  0  0  0  0  0  0  0  0
  141.6470  145.4430  154.9530 C   0  0  0  0  0  0  0  0  0  0  0  0
  141.9320  147.5880  153.9020 C   0  0  0  0  0  0  0  0  0  0  0  0
  143.2470  142.0650  152.6080 C   0  0  0  0  0  0  0  0  0  0  0  0
  138.6450  147.3010  160.1460 C   0  0  0  0  0  0  0  0  0  0  0  0
  139.2910  149.3670  159.0940 C   0  0  0  0  0  0  0  0  0  0  0  0
  138.3050  150.0390  159.8110 C   0  0  0  0  0  0  0  0  0  0  0  0
  137.6590  147.9720  160.8650 C   0  0  0  0  0  0  0  0  0  0  0  0
  140.7280  139.4900  152.5040 C   0  0  0  0  0  0  0  0  0  0  0  0
  137.4880  149.3440  160.6970 C   0  0  0  0  0  0  0  0  0  0  0  0
  140.9410  137.9940  152.5780 C   0  0  0  0  0  0  0  0  0  0  0  0
  138.8010  145.9840  160.3160 F   0  0  0  0  0  0  0  0  0  0  0  0
  138.1410  151.3560  159.6510 F   0  0  0  0  0  0  0  0  0  0  0  0
  1  5  1  0  0  0  0
  2  6  1  0  0  0  0
  5  7  1  0  0  0  0
  1  8  1  0  0  0  0
  2  9  1  0  0  0  0
  4 10  1  0  0  0  0
  6 10  1  0  0  0  0
  3 11  1  0  0  0  0
 10 12  2  0  0  0  0
 11 12  1  0  0  0  0
  6 13  2  0  0  0  0
  8 14  1  0  0  0  0
  8 15  2  0  0  0  0
  9 16  1  0  0  0  0
 14 16  2  0  0  0  0
  9 17  2  0  0  0  0
 15 17  1  0  0  0  0
 11 18  2  0  0  0  0
 13 18  1  0  0  0  0
  7 19  1  0  0  0  0
  7 20  2  0  0  0  0
 20 21  1  0  0  0  0
 19 22  2  0  0  0  0
  3 23  1  0  0  0  0
 21 24  2  0  0  0  0
 22 24  1  0  0  0  0
 23 25  1  0  0  0  0
 19 26  1  0  0  0  0
 21 27  1  0  0  0  0
M  END
$$$$
