7TD4
  PyMOL3.1          3D                             0

 37 40  0  0  0  0  0  0  0  0999 V2000
  137.7360  135.7490  167.6060 C   0  0  0  0  0  0  0  0  0  0  0  0
  137.6700  136.0590  166.1320 C   0  0  0  0  0  0  0  0  0  0  0  0
  137.5530  134.8540  165.2250 C   0  0  0  0  0  0  0  0  0  0  0  0
  136.3980  134.0610  165.1560 C   0  0  0  0  0  0  0  0  0  0  0  0
  136.3450  133.0260  164.2270 C   0  0  0  0  0  0  0  0  0  0  0  0
  137.4020  132.7810  163.3710 C   0  0  0  0  0  0  0  0  0  0  0  0
  138.5500  133.5510  163.4340 C   0  0  0  0  0  0  0  0  0  0  0  0
  138.6190  134.5740  164.3730 C   0  0  0  0  0  0  0  0  0  0  0  0
  139.6740  133.3250  162.4940 C   0  0  0  0  0  0  0  0  0  0  0  0
  139.3440  133.0340  161.2880 N   0  0  0  0  0  0  0  0  0  0  0  0
  140.4590  132.8700  160.4330 O   0  0  0  0  0  0  0  0  0  0  0  0
  139.9500  132.5570  159.1320 C   0  0  0  0  0  0  0  0  0  0  0  0
  140.9720  132.0670  158.1510 C   0  0  0  0  0  0  0  0  0  0  0  0
  142.3280  132.2990  158.3390 C   0  0  0  0  0  0  0  0  0  0  0  0
  143.2650  131.9340  157.3780 C   0  0  0  0  0  0  0  0  0  0  0  0
  142.8420  131.3160  156.1960 C   0  0  0  0  0  0  0  0  0  0  0  0
  141.4890  131.0520  156.0300 C   0  0  0  0  0  0  0  0  0  0  0  0
  140.5720  131.4280  156.9910 C   0  0  0  0  0  0  0  0  0  0  0  0
  143.7800  130.9880  155.0440 C   0  0  0  0  0  0  0  0  0  0  0  0
  144.3460  129.5720  155.1220 C   0  0  0  0  0  0  0  0  0  0  0  0
  145.3320  129.3090  153.9910 C   0  0  0  0  0  0  0  0  0  0  0  0
  144.6850  129.5290  152.6400 C   0  0  0  0  0  0  0  0  0  0  0  0
  144.1060  130.9230  152.5470 C   0  0  0  0  0  0  0  0  0  0  0  0
  143.1240  131.1890  153.6800 C   0  0  0  0  0  0  0  0  0  0  0  0
  144.7090  132.2270  157.6680 C   0  0  0  0  0  0  0  0  0  0  0  0
  141.0860  133.4670  162.9650 C   0  0  0  0  0  0  0  0  0  0  0  0
  135.1990  134.3460  166.0290 C   0  0  0  0  0  0  0  0  0  0  0  0
  134.8530  133.2560  166.9500 N   0  0  0  0  0  0  0  0  0  0  0  0
  133.6690  133.5980  167.7840 C   0  0  0  0  0  0  0  0  0  0  0  0
  134.6620  134.0910  168.8660 C   0  0  0  0  0  0  0  0  0  0  0  0
  135.6710  133.1300  168.1870 C   0  0  0  0  0  0  0  0  0  0  0  0
  134.2910  133.8240  170.3050 C   0  0  0  0  0  0  0  0  0  0  0  0
  135.0740  134.4260  171.1580 O   0  0  0  0  0  0  0  0  0  0  0  0
  133.3530  133.1270  170.6250 O   0  0  0  0  0  0  0  0  0  0  0  0
  145.5340  131.3290  157.1640 F   0  0  0  0  0  0  0  0  0  0  0  0
  145.1010  133.4060  157.1950 F   0  0  0  0  0  0  0  0  0  0  0  0
  144.9710  132.2280  158.9600 F   0  0  0  0  0  0  0  0  0  0  0  0
  1  2  1  0  0  0  0
  2  3  1  0  0  0  0
  3  4  4  0  0  0  0
  3  8  4  0  0  0  0
  4  5  4  0  0  0  0
  4 27  1  0  0  0  0
  5  6  4  0  0  0  0
  6  7  4  0  0  0  0
  7  8  4  0  0  0  0
  7  9  1  0  0  0  0
  9 26  1  0  0  0  0
  9 10  2  0  0  0  0
 10 11  1  0  0  0  0
 11 12  1  0  0  0  0
 12 13  1  0  0  0  0
 13 14  4  0  0  0  0
 13 18  4  0  0  0  0
 14 15  4  0  0  0  0
 15 16  4  0  0  0  0
 15 25  1  0  0  0  0
 16 17  4  0  0  0  0
 16 19  1  0  0  0  0
 17 18  4  0  0  0  0
 19 20  1  0  0  0  0
 19 24  1  0  0  0  0
 20 21  1  0  0  0  0
 21 22  1  0  0  0  0
 22 23  1  0  0  0  0
 23 24  1  0  0  0  0
 25 35  1  0  0  0  0
 25 36  1  0  0  0  0
 25 37  1  0  0  0  0
 27 28  1  0  0  0  0
 28 29  1  0  0  0  0
 28 31  1  0  0  0  0
 29 30  1  0  0  0  0
 30 31  1  0  0  0  0
 30 32  1  0  0  0  0
 32 33  4  0  0  0  0
 32 34  4  0  0  0  0
M  END
$$$$
