9CZF
  PyMOL3.1          3D                             0

 39 44  0  0  0  0  0  0  0  0999 V2000
    6.7840  -44.5280  -15.1430 O   0  0  0  0  0  0  0  0  0  0  0  0
    5.8430  -44.7350  -15.9620 C   0  0  0  0  0  0  0  0  0  0  0  0
    4.6690  -44.3560  -15.6850 O   0  0  0  0  0  0  0  0  0  0  0  0
    6.1160  -45.4370  -17.2800 C   0  0  0  0  0  0  0  0  0  0  0  0
    7.5570  -45.4340  -17.5640 N   0  0  0  0  0  0  0  0  0  0  0  0
    8.0710  -43.9380  -17.7100 C   0  0  0  0  0  0  0  0  0  0  0  0
    9.0720  -43.9480  -18.9690 C   0  0  0  0  0  0  0  0  0  0  0  0
    8.8780  -45.0900  -19.6180 C   0  0  0  0  0  0  0  0  0  0  0  0
    7.7540  -46.0150  -18.7530 C   0  0  0  0  0  0  0  0  0  0  0  0
   10.1080  -45.7950  -19.7460 O   0  0  0  0  0  0  0  0  0  0  0  0
   10.5980  -45.8310  -21.0870 C   0  0  0  0  0  0  0  0  0  0  0  0
   12.1510  -45.8900  -21.0530 C   0  0  0  0  0  0  0  0  0  0  0  0
   12.7080  -47.2190  -21.6360 C   0  0  0  0  0  0  0  0  0  0  0  0
   14.2260  -47.1200  -21.9460 C   0  0  0  0  0  0  0  0  0  0  0  0
   14.4660  -47.1500  -23.4770 C   0  0  0  0  0  0  0  0  0  0  0  0
   15.2040  -46.2070  -24.0490 N   0  0  0  0  0  0  0  0  0  0  0  0
   15.4400  -46.1810  -25.3680 C   0  0  0  0  0  0  0  0  0  0  0  0
   14.9040  -47.1680  -26.1940 C   0  0  0  0  0  0  0  0  0  0  0  0
   15.1650  -47.1520  -27.7350 C   0  0  0  0  0  0  0  0  0  0  0  0
   15.9730  -45.9510  -28.2230 C   0  0  0  0  0  0  0  0  0  0  0  0
   15.8970  -44.7520  -27.2930 C   0  0  0  0  0  0  0  0  0  0  0  0
   16.2780  -45.0910  -25.9370 N   0  0  0  0  0  0  0  0  0  0  0  0
   14.1120  -48.1850  -25.6300 C   0  0  0  0  0  0  0  0  0  0  0  0
   13.8920  -48.1710  -24.2470 C   0  0  0  0  0  0  0  0  0  0  0  0
    5.6210  -46.8920  -17.2200 C   0  0  0  0  0  0  0  0  0  0  0  0
    6.1930  -47.7890  -16.3260 C   0  0  0  0  0  0  0  0  0  0  0  0
    5.7410  -49.1050  -16.2770 C   0  0  0  0  0  0  0  0  0  0  0  0
    4.7170  -49.5280  -17.1240 C   0  0  0  0  0  0  0  0  0  0  0  0
    4.1430  -48.6300  -18.0220 C   0  0  0  0  0  0  0  0  0  0  0  0
    4.5940  -47.3160  -18.0690 C   0  0  0  0  0  0  0  0  0  0  0  0
    3.9760  -46.3310  -19.0470 C   0  0  0  0  0  0  0  0  0  0  0  0
    2.5350  -46.7320  -19.3530 C   0  0  0  0  0  0  0  0  0  0  0  0
    1.9130  -45.8590  -20.3690 C   0  0  0  0  0  0  0  0  0  0  0  0
    2.7530  -45.6010  -21.5440 C   0  0  0  0  0  0  0  0  0  0  0  0
    2.5100  -46.4650  -22.7890 C   0  0  0  0  0  0  0  0  0  0  0  0
    2.1820  -44.9720  -22.8240 C   0  0  0  0  0  0  0  0  0  0  0  0
    4.2210  -45.3370  -21.2080 C   0  0  0  0  0  0  0  0  0  0  0  0
    4.7720  -46.3160  -20.2630 O   0  0  0  0  0  0  0  0  0  0  0  0
    6.3040  -49.9830  -15.3930 F   0  0  0  0  0  0  0  0  0  0  0  0
  1  2  1  0  0  0  0
  2  3  2  0  0  0  0
  2  4  1  0  0  0  0
  4  5  1  0  0  0  0
  5  6  1  0  0  0  0
  6  7  1  0  0  0  0
  7  8  1  0  0  0  0
  5  9  1  0  0  0  0
  8  9  1  0  0  0  0
  8 10  1  0  0  0  0
 10 11  1  0  0  0  0
 11 12  1  0  0  0  0
 12 13  1  0  0  0  0
 13 14  1  0  0  0  0
 14 15  1  0  0  0  0
 15 16  1  0  0  0  0
 16 17  2  0  0  0  0
 17 18  1  0  0  0  0
 18 19  1  0  0  0  0
 19 20  1  0  0  0  0
 20 21  1  0  0  0  0
 17 22  1  0  0  0  0
 21 22  1  0  0  0  0
 18 23  2  0  0  0  0
 15 24  2  0  0  0  0
 23 24  1  0  0  0  0
  4 25  1  0  0  0  0
 25 26  2  0  0  0  0
 26 27  1  0  0  0  0
 27 28  2  0  0  0  0
 28 29  1  0  0  0  0
 25 30  1  0  0  0  0
 29 30  2  0  0  0  0
 30 31  1  0  0  0  0
 31 32  1  0  0  0  0
 32 33  1  0  0  0  0
 33 34  1  0  0  0  0
 34 35  1  0  0  0  0
 34 36  1  0  0  0  0
 35 36  1  0  0  0  0
 34 37  1  0  0  0  0
 31 38  1  0  0  0  0
 37 38  1  0  0  0  0
 27 39  1  0  0  0  0
M  END
$$$$
