7QN9
  PyMOL3.1          3D                             0

 24 24  0  0  0  0  0  0  0  0999 V2000
  148.2450  110.5210  106.8390 N   0  0  0  0  0  0  0  0  0  0  0  0
  147.7750  109.2360  106.3160 C   0  0  0  0  0  0  0  0  0  0  0  0
  146.3300  109.0190  106.7920 C   0  0  0  0  0  0  0  0  0  0  0  0
  145.7620  107.7170  106.3250 C   0  0  0  0  0  0  0  0  0  0  0  0
  145.7860  106.5020  106.9350 C   0  0  0  0  0  0  0  0  0  0  0  0
  145.0920  107.6060  105.1210 N   0  0  0  0  0  0  0  0  0  0  0  0
  144.7310  106.3350  105.0390 C   0  0  0  0  0  0  0  0  0  0  0  0
  145.1280  105.6360  106.1070 N   0  0  0  0  0  0  0  0  0  0  0  0
  147.4220  139.8730  102.8390 N   0  0  0  0  0  0  0  0  0  0  0  0
  148.5620  139.4250  103.6410 C   0  0  0  0  0  0  0  0  0  0  0  0
  149.0330  138.0640  103.1020 C   0  0  0  0  0  0  0  0  0  0  0  0
  150.2080  137.5270  103.8550 C   0  0  0  0  0  0  0  0  0  0  0  0
  150.4740  137.5870  105.1870 C   0  0  0  0  0  0  0  0  0  0  0  0
  151.2350  136.8560  103.2170 N   0  0  0  0  0  0  0  0  0  0  0  0
  152.0880  136.5330  104.1760 C   0  0  0  0  0  0  0  0  0  0  0  0
  151.6700  136.9520  105.3750 N   0  0  0  0  0  0  0  0  0  0  0  0
  119.2450  149.1950  103.9230 N   0  0  0  0  0  0  0  0  0  0  0  0
  120.1470  150.1650  104.5490 C   0  0  0  0  0  0  0  0  0  0  0  0
  121.3930  150.3170  103.6600 C   0  0  0  0  0  0  0  0  0  0  0  0
  122.3730  151.3000  104.2160 C   0  0  0  0  0  0  0  0  0  0  0  0
  122.7460  151.5040  105.5070 C   0  0  0  0  0  0  0  0  0  0  0  0
  123.0610  152.1810  103.4000 N   0  0  0  0  0  0  0  0  0  0  0  0
  123.8250  152.8880  104.2180 C   0  0  0  0  0  0  0  0  0  0  0  0
  123.6670  152.5140  105.4930 N   0  0  0  0  0  0  0  0  0  0  0  0
  1  2  1  0  0  0  0
  2  3  1  0  0  0  0
  3  4  1  0  0  0  0
  4  5  4  0  0  0  0
  4  6  4  0  0  0  0
  5  8  4  0  0  0  0
  6  7  4  0  0  0  0
  7  8  4  0  0  0  0
  9 10  1  0  0  0  0
 10 11  1  0  0  0  0
 11 12  1  0  0  0  0
 12 13  4  0  0  0  0
 12 14  4  0  0  0  0
 13 16  4  0  0  0  0
 14 15  4  0  0  0  0
 15 16  4  0  0  0  0
 17 18  1  0  0  0  0
 18 19  1  0  0  0  0
 19 20  1  0  0  0  0
 20 21  4  0  0  0  0
 20 22  4  0  0  0  0
 21 24  4  0  0  0  0
 22 23  4  0  0  0  0
 23 24  4  0  0  0  0
M  END
$$$$
